1
 SUMMARY VOLUMETRIC BUDGET FOR GSFLOW 
 DATE: 10 07 1990              CUMULATIVE TIME STEP:       7
 MODFLOW STRESS PERIOD      2     CURRENT TIME STEP:       7     ITERATIONS:      19

 -----------------------------------------------------------------------------------

   CUMULATIVE VOLUMES               L**3   RATES FOR THIS TIME STEP           L**3/T
   ------------------                      ------------------------

                                     IN                                         IN
                                     --                                         --
        PRECIPITATION =                            PRECIPITATION =                  
           STREAMFLOW =                               STREAMFLOW =                  
     GW BOUNDARY FLOW =             37.00       GW BOUNDARY FLOW =              5.27


                                    OUT                                        OUT
                                    ---                                        ---
   EVAPOTRANSPIRATION =         384501.39     EVAPOTRANSPIRATION =          12657.47
           STREAMFLOW =          53592.84             STREAMFLOW =           9168.07
     GW BOUNDARY FLOW =            433.61       GW BOUNDARY FLOW =             62.33

   INFLOWS - OUTFLOWS =        -438490.83     INFLOWS - OUTFLOWS =         -21882.61
             --------                                   --------

 TOTAL STORAGE CHANGE =        -436692.01         STORAGE CHANGE =         -21787.30
       --------------                             --------------
         LAND SURFACE =                             LAND SURFACE =                  
            SOIL ZONE =         -31024.18              SOIL ZONE =           -693.96
     UNSATURATED ZONE =        -498645.01       UNSATURATED ZONE =         -34704.83
       SATURATED ZONE =          90485.58         SATURATED ZONE =          12193.36
                LAKES =           2491.59                  LAKES =           1418.13

 OVERALL BUDGET ERROR =          -1798.81           BUDGET ERROR =            -95.30


  PERCENT DISCREPANCY =             -0.41    PERCENT DISCREPANCY =             -0.44



1
 SUMMARY VOLUMETRIC BUDGET FOR GSFLOW 
 DATE: 10 14 1990              CUMULATIVE TIME STEP:      14
 MODFLOW STRESS PERIOD      2     CURRENT TIME STEP:      14     ITERATIONS:      18

 -----------------------------------------------------------------------------------

   CUMULATIVE VOLUMES               L**3   RATES FOR THIS TIME STEP           L**3/T
   ------------------                      ------------------------

                                     IN                                         IN
                                     --                                         --
        PRECIPITATION =                            PRECIPITATION =                  
           STREAMFLOW =                               STREAMFLOW =                  
     GW BOUNDARY FLOW =             73.53       GW BOUNDARY FLOW =              5.18


                                    OUT                                        OUT
                                    ---                                        ---
   EVAPOTRANSPIRATION =         665117.44     EVAPOTRANSPIRATION =          42960.65
           STREAMFLOW =         116912.67             STREAMFLOW =           8877.62
     GW BOUNDARY FLOW =            868.43       GW BOUNDARY FLOW =             62.04

   INFLOWS - OUTFLOWS =        -782825.01     INFLOWS - OUTFLOWS =         -51895.13
             --------                                   --------

 TOTAL STORAGE CHANGE =        -780280.33         STORAGE CHANGE =         -51803.81
       --------------                             --------------
         LAND SURFACE =                             LAND SURFACE =                  
            SOIL ZONE =         -53391.41              SOIL ZONE =          -4085.88
     UNSATURATED ZONE =        -878149.71       UNSATURATED ZONE =         -53425.15
       SATURATED ZONE =         148863.19         SATURATED ZONE =           6230.93
                LAKES =           2397.60                  LAKES =           -523.71

 OVERALL BUDGET ERROR =          -2544.68           BUDGET ERROR =            -91.32


  PERCENT DISCREPANCY =             -0.33    PERCENT DISCREPANCY =             -0.18



1
 SUMMARY VOLUMETRIC BUDGET FOR GSFLOW 
 DATE: 10 21 1990              CUMULATIVE TIME STEP:      21
 MODFLOW STRESS PERIOD      2     CURRENT TIME STEP:      21     ITERATIONS:      12

 -----------------------------------------------------------------------------------

   CUMULATIVE VOLUMES               L**3   RATES FOR THIS TIME STEP           L**3/T
   ------------------                      ------------------------

                                     IN                                         IN
                                     --                                         --
        PRECIPITATION =         188432.87          PRECIPITATION =                  
           STREAMFLOW =                               STREAMFLOW =                  
     GW BOUNDARY FLOW =            109.32       GW BOUNDARY FLOW =              5.06


                                    OUT                                        OUT
                                    ---                                        ---
   EVAPOTRANSPIRATION =         807457.69     EVAPOTRANSPIRATION =          36532.57
           STREAMFLOW =         184544.43             STREAMFLOW =          10209.41
     GW BOUNDARY FLOW =           1304.46       GW BOUNDARY FLOW =             62.49

   INFLOWS - OUTFLOWS =        -804764.39     INFLOWS - OUTFLOWS =         -46799.41
             --------                                   --------

 TOTAL STORAGE CHANGE =        -801715.61         STORAGE CHANGE =         -46737.19
       --------------                             --------------
         LAND SURFACE =          15556.93           LAND SURFACE =         -33925.86
            SOIL ZONE =          62972.40              SOIL ZONE =             46.99
     UNSATURATED ZONE =       -1097402.52       UNSATURATED ZONE =         -23300.78
       SATURATED ZONE =         207332.08         SATURATED ZONE =           9800.76
                LAKES =           9825.51                  LAKES =            641.71

 OVERALL BUDGET ERROR =          -3048.78           BUDGET ERROR =            -62.23


  PERCENT DISCREPANCY =             -0.31    PERCENT DISCREPANCY =             -0.13



1
 SUMMARY VOLUMETRIC BUDGET FOR GSFLOW 
 DATE: 10 28 1990              CUMULATIVE TIME STEP:      28
 MODFLOW STRESS PERIOD      2     CURRENT TIME STEP:      28     ITERATIONS:      12

 -----------------------------------------------------------------------------------

   CUMULATIVE VOLUMES               L**3   RATES FOR THIS TIME STEP           L**3/T
   ------------------                      ------------------------

                                     IN                                         IN
                                     --                                         --
        PRECIPITATION =         188432.87          PRECIPITATION =                  
           STREAMFLOW =                               STREAMFLOW =                  
     GW BOUNDARY FLOW =            144.26       GW BOUNDARY FLOW =              4.94


                                    OUT                                        OUT
                                    ---                                        ---
   EVAPOTRANSPIRATION =         932109.85     EVAPOTRANSPIRATION =          11220.21
           STREAMFLOW =         252770.67             STREAMFLOW =           9847.01
     GW BOUNDARY FLOW =           1739.84       GW BOUNDARY FLOW =             62.23

   INFLOWS - OUTFLOWS =        -998043.24     INFLOWS - OUTFLOWS =         -21124.52
             --------                                   --------

 TOTAL STORAGE CHANGE =        -994544.35         STORAGE CHANGE =         -21062.68
       --------------                             --------------
         LAND SURFACE =                             LAND SURFACE =                  
            SOIL ZONE =          37754.05              SOIL ZONE =          -2854.98
     UNSATURATED ZONE =       -1288056.92       UNSATURATED ZONE =         -24004.94
       SATURATED ZONE =         245828.02         SATURATED ZONE =           5541.93
                LAKES =           9930.50                  LAKES =            255.31

 OVERALL BUDGET ERROR =          -3498.89           BUDGET ERROR =            -61.84


  PERCENT DISCREPANCY =             -0.30    PERCENT DISCREPANCY =             -0.29



1
 SUMMARY VOLUMETRIC BUDGET FOR GSFLOW 
 DATE: 11 04 1990              CUMULATIVE TIME STEP:       4
 MODFLOW STRESS PERIOD      3     CURRENT TIME STEP:      35     ITERATIONS:      13

 -----------------------------------------------------------------------------------

   CUMULATIVE VOLUMES               L**3   RATES FOR THIS TIME STEP           L**3/T
   ------------------                      ------------------------

                                     IN                                         IN
                                     --                                         --
        PRECIPITATION =         703113.06          PRECIPITATION =                  
           STREAMFLOW =                               STREAMFLOW =                  
     GW BOUNDARY FLOW =            178.76       GW BOUNDARY FLOW =              4.98


                                    OUT                                        OUT
                                    ---                                        ---
   EVAPOTRANSPIRATION =         991245.09     EVAPOTRANSPIRATION =          25484.13
           STREAMFLOW =         325257.93             STREAMFLOW =          10639.32
     GW BOUNDARY FLOW =           2176.90       GW BOUNDARY FLOW =             62.51

   INFLOWS - OUTFLOWS =        -615388.09     INFLOWS - OUTFLOWS =         -36180.98
             --------                                   --------

 TOTAL STORAGE CHANGE =        -611469.80         STORAGE CHANGE =         -36121.87
       --------------                             --------------
         LAND SURFACE =          69855.42           LAND SURFACE =         -81119.23
            SOIL ZONE =         431398.21              SOIL ZONE =          56874.84
     UNSATURATED ZONE =       -1440325.05       UNSATURATED ZONE =         -21008.61
       SATURATED ZONE =         298790.64         SATURATED ZONE =           7967.04
                LAKES =          28810.97                  LAKES =           1164.08

 OVERALL BUDGET ERROR =          -3918.29           BUDGET ERROR =            -59.11


  PERCENT DISCREPANCY =             -0.30    PERCENT DISCREPANCY =             -0.16



1
 SUMMARY VOLUMETRIC BUDGET FOR GSFLOW 
 DATE: 11 11 1990              CUMULATIVE TIME STEP:      11
 MODFLOW STRESS PERIOD      3     CURRENT TIME STEP:      42     ITERATIONS:      13

 -----------------------------------------------------------------------------------

   CUMULATIVE VOLUMES               L**3   RATES FOR THIS TIME STEP           L**3/T
   ------------------                      ------------------------

                                     IN                                         IN
                                     --                                         --
        PRECIPITATION =         703113.06          PRECIPITATION =                  
           STREAMFLOW =                               STREAMFLOW =                  
     GW BOUNDARY FLOW =            214.16       GW BOUNDARY FLOW =              5.11


                                    OUT                                        OUT
                                    ---                                        ---
   EVAPOTRANSPIRATION =        1063575.12     EVAPOTRANSPIRATION =          12415.39
           STREAMFLOW =         397754.63             STREAMFLOW =          10149.02
     GW BOUNDARY FLOW =           2613.59       GW BOUNDARY FLOW =             62.31

   INFLOWS - OUTFLOWS =        -760616.12     INFLOWS - OUTFLOWS =         -22621.61
             --------                                   --------

 TOTAL STORAGE CHANGE =        -756285.25         STORAGE CHANGE =         -22562.88
       --------------                             --------------
         LAND SURFACE =            295.92           LAND SURFACE =           -859.89
            SOIL ZONE =         451400.48              SOIL ZONE =          -5968.90
     UNSATURATED ZONE =       -1586255.57       UNSATURATED ZONE =         -20861.05
       SATURATED ZONE =         341660.32         SATURATED ZONE =           4467.91
                LAKES =          36613.61                  LAKES =            659.05

 OVERALL BUDGET ERROR =          -4330.87           BUDGET ERROR =            -58.73


  PERCENT DISCREPANCY =             -0.30    PERCENT DISCREPANCY =             -0.26



1
 SUMMARY VOLUMETRIC BUDGET FOR GSFLOW 
 DATE: 11 18 1990              CUMULATIVE TIME STEP:      18
 MODFLOW STRESS PERIOD      3     CURRENT TIME STEP:      49     ITERATIONS:      13

 -----------------------------------------------------------------------------------

   CUMULATIVE VOLUMES               L**3   RATES FOR THIS TIME STEP           L**3/T
   ------------------                      ------------------------

                                     IN                                         IN
                                     --                                         --
        PRECIPITATION =         747883.35          PRECIPITATION =                  
           STREAMFLOW =                               STREAMFLOW =                  
     GW BOUNDARY FLOW =            250.53       GW BOUNDARY FLOW =              5.29


                                    OUT                                        OUT
                                    ---                                        ---
   EVAPOTRANSPIRATION =        1132212.94     EVAPOTRANSPIRATION =           5324.77
           STREAMFLOW =         470819.62             STREAMFLOW =          10627.95
     GW BOUNDARY FLOW =           3050.50       GW BOUNDARY FLOW =             62.47

   INFLOWS - OUTFLOWS =        -857949.18     INFLOWS - OUTFLOWS =         -16009.90
             --------                                   --------

 TOTAL STORAGE CHANGE =        -853214.42         STORAGE CHANGE =         -15952.66
       --------------                             --------------
         LAND SURFACE =          10000.08           LAND SURFACE =          -4106.14
            SOIL ZONE =         438139.34              SOIL ZONE =            114.55
     UNSATURATED ZONE =       -1725859.81       UNSATURATED ZONE =         -19463.73
       SATURATED ZONE =         379123.78         SATURATED ZONE =           5925.82
                LAKES =          45382.19                  LAKES =           1576.85

 OVERALL BUDGET ERROR =          -4734.76           BUDGET ERROR =            -57.24


  PERCENT DISCREPANCY =             -0.30    PERCENT DISCREPANCY =             -0.36



1
 SUMMARY VOLUMETRIC BUDGET FOR GSFLOW 
 DATE: 11 25 1990              CUMULATIVE TIME STEP:      25
 MODFLOW STRESS PERIOD      3     CURRENT TIME STEP:      56     ITERATIONS:      13

 -----------------------------------------------------------------------------------

   CUMULATIVE VOLUMES               L**3   RATES FOR THIS TIME STEP           L**3/T
   ------------------                      ------------------------

                                     IN                                         IN
                                     --                                         --
        PRECIPITATION =        1009043.38          PRECIPITATION =         186542.88
           STREAMFLOW =                               STREAMFLOW =                  
     GW BOUNDARY FLOW =            288.41       GW BOUNDARY FLOW =              5.49


                                    OUT                                        OUT
                                    ---                                        ---
   EVAPOTRANSPIRATION =        1191913.68     EVAPOTRANSPIRATION =           3785.15
           STREAMFLOW =         546205.17             STREAMFLOW =          10765.80
     GW BOUNDARY FLOW =           3488.15       GW BOUNDARY FLOW =             62.48

   INFLOWS - OUTFLOWS =        -732275.20     INFLOWS - OUTFLOWS =         171934.94
             --------                                   --------

 TOTAL STORAGE CHANGE =        -727142.76         STORAGE CHANGE =         171991.45
       --------------                             --------------
         LAND SURFACE =          90552.09           LAND SURFACE =          74007.18
            SOIL ZONE =         561780.56              SOIL ZONE =         106183.70
     UNSATURATED ZONE =       -1859420.17       UNSATURATED ZONE =         -18785.51
       SATURATED ZONE =         418202.01         SATURATED ZONE =           4990.15
                LAKES =          61742.74                  LAKES =           5595.93

 OVERALL BUDGET ERROR =          -5132.44           BUDGET ERROR =            -56.51


  PERCENT DISCREPANCY =             -0.30    PERCENT DISCREPANCY =             -0.03



1
 SUMMARY VOLUMETRIC BUDGET FOR GSFLOW 
 DATE: 12 02 1990              CUMULATIVE TIME STEP:       2
 MODFLOW STRESS PERIOD      4     CURRENT TIME STEP:      63     ITERATIONS:      13

 -----------------------------------------------------------------------------------

   CUMULATIVE VOLUMES               L**3   RATES FOR THIS TIME STEP           L**3/T
   ------------------                      ------------------------

                                     IN                                         IN
                                     --                                         --
        PRECIPITATION =        1449284.55          PRECIPITATION =                  
           STREAMFLOW =                               STREAMFLOW =                  
     GW BOUNDARY FLOW =            327.52       GW BOUNDARY FLOW =              5.65


                                    OUT                                        OUT
                                    ---                                        ---
   EVAPOTRANSPIRATION =        1199480.93     EVAPOTRANSPIRATION =            374.48
           STREAMFLOW =         622457.90             STREAMFLOW =          10927.71
     GW BOUNDARY FLOW =           3925.98       GW BOUNDARY FLOW =             62.55

   INFLOWS - OUTFLOWS =        -376252.74     INFLOWS - OUTFLOWS =         -11359.09
             --------                                   --------

 TOTAL STORAGE CHANGE =        -370728.31         STORAGE CHANGE =         -11303.47
       --------------                             --------------
         LAND SURFACE =         483538.33           LAND SURFACE =           -447.93
            SOIL ZONE =         598037.02              SOIL ZONE =            905.96
     UNSATURATED ZONE =       -1988197.79       UNSATURATED ZONE =         -18096.18
       SATURATED ZONE =         452530.07         SATURATED ZONE =           4546.62
                LAKES =          83364.06                  LAKES =           1788.06

 OVERALL BUDGET ERROR =          -5524.43           BUDGET ERROR =            -55.62


  PERCENT DISCREPANCY =             -0.30    PERCENT DISCREPANCY =             -0.49



1
 SUMMARY VOLUMETRIC BUDGET FOR GSFLOW 
 DATE: 12 09 1990              CUMULATIVE TIME STEP:       9
 MODFLOW STRESS PERIOD      4     CURRENT TIME STEP:      70     ITERATIONS:      12

 -----------------------------------------------------------------------------------

   CUMULATIVE VOLUMES               L**3   RATES FOR THIS TIME STEP           L**3/T
   ------------------                      ------------------------

                                     IN                                         IN
                                     --                                         --
        PRECIPITATION =        1449284.55          PRECIPITATION =                  
           STREAMFLOW =                               STREAMFLOW =                  
     GW BOUNDARY FLOW =            367.43       GW BOUNDARY FLOW =              5.74


                                    OUT                                        OUT
                                    ---                                        ---
   EVAPOTRANSPIRATION =        1276049.02     EVAPOTRANSPIRATION =          13476.84
           STREAMFLOW =         698727.24             STREAMFLOW =          10711.44
     GW BOUNDARY FLOW =           4363.59       GW BOUNDARY FLOW =             62.44

   INFLOWS - OUTFLOWS =        -529487.87     INFLOWS - OUTFLOWS =         -24244.98
             --------                                   --------

 TOTAL STORAGE CHANGE =        -523577.63         STORAGE CHANGE =         -24190.30
       --------------                             --------------
         LAND SURFACE =          66277.71           LAND SURFACE =         -45985.11
            SOIL ZONE =         948595.40              SOIL ZONE =          34953.18
     UNSATURATED ZONE =       -2111895.54       UNSATURATED ZONE =         -17305.76
       SATURATED ZONE =         479174.07         SATURATED ZONE =           2812.25
                LAKES =          94270.73                  LAKES =           1335.13

 OVERALL BUDGET ERROR =          -5910.24           BUDGET ERROR =            -54.68


  PERCENT DISCREPANCY =             -0.30    PERCENT DISCREPANCY =             -0.23



1
 SUMMARY VOLUMETRIC BUDGET FOR GSFLOW 
 DATE: 12 16 1990              CUMULATIVE TIME STEP:      16
 MODFLOW STRESS PERIOD      4     CURRENT TIME STEP:      77     ITERATIONS:      13

 -----------------------------------------------------------------------------------

   CUMULATIVE VOLUMES               L**3   RATES FOR THIS TIME STEP           L**3/T
   ------------------                      ------------------------

                                     IN                                         IN
                                     --                                         --
        PRECIPITATION =        1804962.84          PRECIPITATION =                  
           STREAMFLOW =                               STREAMFLOW =                  
     GW BOUNDARY FLOW =            408.07       GW BOUNDARY FLOW =              5.84


                                    OUT                                        OUT
                                    ---                                        ---
   EVAPOTRANSPIRATION =        1304154.65     EVAPOTRANSPIRATION =                  
           STREAMFLOW =         775223.56             STREAMFLOW =          10872.05
     GW BOUNDARY FLOW =           4801.30       GW BOUNDARY FLOW =             62.55

   INFLOWS - OUTFLOWS =        -278808.60     INFLOWS - OUTFLOWS =         -10928.76
             --------                                   --------

 TOTAL STORAGE CHANGE =        -272518.22         STORAGE CHANGE =         -10874.82
       --------------                             --------------
         LAND SURFACE =         252931.45           LAND SURFACE =                  
            SOIL ZONE =        1090642.69              SOIL ZONE =            754.68
     UNSATURATED ZONE =       -2231062.34       UNSATURATED ZONE =         -16717.17
       SATURATED ZONE =         501672.18         SATURATED ZONE =           3198.39
                LAKES =         113297.79                  LAKES =           1889.28

 OVERALL BUDGET ERROR =          -6290.37           BUDGET ERROR =            -53.94


  PERCENT DISCREPANCY =             -0.30    PERCENT DISCREPANCY =             -0.49



1
 SUMMARY VOLUMETRIC BUDGET FOR GSFLOW 
 DATE: 12 23 1990              CUMULATIVE TIME STEP:      23
 MODFLOW STRESS PERIOD      4     CURRENT TIME STEP:      84     ITERATIONS:      13

 -----------------------------------------------------------------------------------

   CUMULATIVE VOLUMES               L**3   RATES FOR THIS TIME STEP           L**3/T
   ------------------                      ------------------------

                                     IN                                         IN
                                     --                                         --
        PRECIPITATION =        2276236.55          PRECIPITATION =                  
           STREAMFLOW =                               STREAMFLOW =                  
     GW BOUNDARY FLOW =            449.27       GW BOUNDARY FLOW =              5.92


                                    OUT                                        OUT
                                    ---                                        ---
   EVAPOTRANSPIRATION =        1305528.82     EVAPOTRANSPIRATION =                  
           STREAMFLOW =         852306.34             STREAMFLOW =          11065.04
     GW BOUNDARY FLOW =           5239.22       GW BOUNDARY FLOW =             62.57

   INFLOWS - OUTFLOWS =         113611.43     INFLOWS - OUTFLOWS =         -11121.69
             --------                                   --------

 TOTAL STORAGE CHANGE =         120275.54         STORAGE CHANGE =         -11068.61
       --------------                             --------------
         LAND SURFACE =         713967.50           LAND SURFACE =                  
            SOIL ZONE =        1096404.99              SOIL ZONE =            871.17
     UNSATURATED ZONE =       -2345853.42       UNSATURATED ZONE =         -16166.48
       SATURATED ZONE =         520407.30         SATURATED ZONE =           2330.22
                LAKES =         135349.18                  LAKES =           1896.48

 OVERALL BUDGET ERROR =          -6664.11           BUDGET ERROR =            -53.07


  PERCENT DISCREPANCY =             -0.29    PERCENT DISCREPANCY =             -0.48



1
 SUMMARY VOLUMETRIC BUDGET FOR GSFLOW 
 DATE: 12 30 1990              CUMULATIVE TIME STEP:      30
 MODFLOW STRESS PERIOD      4     CURRENT TIME STEP:      91     ITERATIONS:      12

 -----------------------------------------------------------------------------------

   CUMULATIVE VOLUMES               L**3   RATES FOR THIS TIME STEP           L**3/T
   ------------------                      ------------------------

                                     IN                                         IN
                                     --                                         --
        PRECIPITATION =        2276236.55          PRECIPITATION =                  
           STREAMFLOW =                               STREAMFLOW =                  
     GW BOUNDARY FLOW =            491.05       GW BOUNDARY FLOW =              6.01


                                    OUT                                        OUT
                                    ---                                        ---
   EVAPOTRANSPIRATION =        1306281.48     EVAPOTRANSPIRATION =                  
           STREAMFLOW =         928455.27             STREAMFLOW =          10850.01
     GW BOUNDARY FLOW =           5677.09       GW BOUNDARY FLOW =             62.55

   INFLOWS - OUTFLOWS =          36313.77     INFLOWS - OUTFLOWS =         -10906.56
             --------                                   --------

 TOTAL STORAGE CHANGE =          43345.96         STORAGE CHANGE =         -10854.40
       --------------                             --------------
         LAND SURFACE =         713227.10           LAND SURFACE =                  
            SOIL ZONE =        1102792.01              SOIL ZONE =            940.54
     UNSATURATED ZONE =       -2457019.07       UNSATURATED ZONE =         -15648.40
       SATURATED ZONE =         535750.93         SATURATED ZONE =           1961.54
                LAKES =         148594.99                  LAKES =           1891.92

 OVERALL BUDGET ERROR =          -7032.19           BUDGET ERROR =            -52.15


  PERCENT DISCREPANCY =             -0.31    PERCENT DISCREPANCY =             -0.48



1
 SUMMARY VOLUMETRIC BUDGET FOR GSFLOW 
 DATE: 01 06 1991              CUMULATIVE TIME STEP:       6
 MODFLOW STRESS PERIOD      5     CURRENT TIME STEP:      98     ITERATIONS:      12

 -----------------------------------------------------------------------------------

   CUMULATIVE VOLUMES               L**3   RATES FOR THIS TIME STEP           L**3/T
   ------------------                      ------------------------

                                     IN                                         IN
                                     --                                         --
        PRECIPITATION =        2276236.55          PRECIPITATION =                  
           STREAMFLOW =                               STREAMFLOW =                  
     GW BOUNDARY FLOW =            533.44       GW BOUNDARY FLOW =              6.09


                                    OUT                                        OUT
                                    ---                                        ---
   EVAPOTRANSPIRATION =        1329550.28     EVAPOTRANSPIRATION =           2582.18
           STREAMFLOW =        1004575.37             STREAMFLOW =          10902.23
     GW BOUNDARY FLOW =           6114.96       GW BOUNDARY FLOW =             62.56

   INFLOWS - OUTFLOWS =         -63470.62     INFLOWS - OUTFLOWS =         -13540.88
             --------                                   --------

 TOTAL STORAGE CHANGE =         -56075.91         STORAGE CHANGE =         -13489.42
       --------------                             --------------
         LAND SURFACE =         611048.82           LAND SURFACE =          -5987.72
            SOIL ZONE =        1188804.77              SOIL ZONE =           4401.13
     UNSATURATED ZONE =       -2564210.59       UNSATURATED ZONE =         -15079.37
       SATURATED ZONE =         546899.34         SATURATED ZONE =           1328.30
                LAKES =         161381.74                  LAKES =           1848.23

 OVERALL BUDGET ERROR =          -7394.71           BUDGET ERROR =            -51.46


  PERCENT DISCREPANCY =             -0.32    PERCENT DISCREPANCY =             -0.38



1
 SUMMARY VOLUMETRIC BUDGET FOR GSFLOW 
 DATE: 01 13 1991              CUMULATIVE TIME STEP:      13
 MODFLOW STRESS PERIOD      5     CURRENT TIME STEP:     105     ITERATIONS:      12

 -----------------------------------------------------------------------------------

   CUMULATIVE VOLUMES               L**3   RATES FOR THIS TIME STEP           L**3/T
   ------------------                      ------------------------

                                     IN                                         IN
                                     --                                         --
        PRECIPITATION =        2596386.94          PRECIPITATION =          10327.43
           STREAMFLOW =                               STREAMFLOW =                  
     GW BOUNDARY FLOW =            576.39       GW BOUNDARY FLOW =              6.16


                                    OUT                                        OUT
                                    ---                                        ---
   EVAPOTRANSPIRATION =        1389348.25     EVAPOTRANSPIRATION =          16654.40
           STREAMFLOW =        1082090.03             STREAMFLOW =          11144.47
     GW BOUNDARY FLOW =           6552.94       GW BOUNDARY FLOW =             62.58

   INFLOWS - OUTFLOWS =         118972.12     INFLOWS - OUTFLOWS =         -17527.86
             --------                                   --------

 TOTAL STORAGE CHANGE =         126723.50         STORAGE CHANGE =         -17477.38
       --------------                             --------------
         LAND SURFACE =         580569.75           LAND SURFACE =        -132014.68
            SOIL ZONE =        1483112.69              SOIL ZONE =         127554.94
     UNSATURATED ZONE =       -2667484.58       UNSATURATED ZONE =         -14554.01
       SATURATED ZONE =         551729.04         SATURATED ZONE =           -131.83
                LAKES =         178796.60                  LAKES =           1668.19

 OVERALL BUDGET ERROR =          -7751.38           BUDGET ERROR =            -50.48


  PERCENT DISCREPANCY =             -0.30    PERCENT DISCREPANCY =             -0.18



1
 SUMMARY VOLUMETRIC BUDGET FOR GSFLOW 
 DATE: 01 20 1991              CUMULATIVE TIME STEP:      20
 MODFLOW STRESS PERIOD      5     CURRENT TIME STEP:     112     ITERATIONS:      12

 -----------------------------------------------------------------------------------

   CUMULATIVE VOLUMES               L**3   RATES FOR THIS TIME STEP           L**3/T
   ------------------                      ------------------------

                                     IN                                         IN
                                     --                                         --
        PRECIPITATION =        2596386.94          PRECIPITATION =                  
           STREAMFLOW =                               STREAMFLOW =                  
     GW BOUNDARY FLOW =            619.77       GW BOUNDARY FLOW =              6.23


                                    OUT                                        OUT
                                    ---                                        ---
   EVAPOTRANSPIRATION =        1457563.47     EVAPOTRANSPIRATION =           1805.82
           STREAMFLOW =        1160648.35             STREAMFLOW =          11230.18
     GW BOUNDARY FLOW =           6991.03       GW BOUNDARY FLOW =             62.59

   INFLOWS - OUTFLOWS =         -28196.14     INFLOWS - OUTFLOWS =         -13092.36
             --------                                   --------

 TOTAL STORAGE CHANGE =         -20093.97         STORAGE CHANGE =         -13042.58
       --------------                             --------------
         LAND SURFACE =         420372.80           LAND SURFACE =           -292.00
            SOIL ZONE =        1582848.90              SOIL ZONE =           -662.20
     UNSATURATED ZONE =       -2766620.11       UNSATURATED ZONE =         -13921.57
       SATURATED ZONE =         551925.71         SATURATED ZONE =           -162.17
                LAKES =         191378.72                  LAKES =           1995.37

 OVERALL BUDGET ERROR =          -8102.17           BUDGET ERROR =            -49.78


  PERCENT DISCREPANCY =             -0.31    PERCENT DISCREPANCY =             -0.38



1
 SUMMARY VOLUMETRIC BUDGET FOR GSFLOW 
 DATE: 01 27 1991              CUMULATIVE TIME STEP:      27
 MODFLOW STRESS PERIOD      5     CURRENT TIME STEP:     119     ITERATIONS:      12

 -----------------------------------------------------------------------------------

   CUMULATIVE VOLUMES               L**3   RATES FOR THIS TIME STEP           L**3/T
   ------------------                      ------------------------

                                     IN                                         IN
                                     --                                         --
        PRECIPITATION =        2596386.94          PRECIPITATION =                  
           STREAMFLOW =                               STREAMFLOW =                  
     GW BOUNDARY FLOW =            663.66       GW BOUNDARY FLOW =              6.30


                                    OUT                                        OUT
                                    ---                                        ---
   EVAPOTRANSPIRATION =        1478507.90     EVAPOTRANSPIRATION =           1215.44
           STREAMFLOW =        1239338.76             STREAMFLOW =          11250.24
     GW BOUNDARY FLOW =           7429.14       GW BOUNDARY FLOW =             62.59

   INFLOWS - OUTFLOWS =        -128225.19     INFLOWS - OUTFLOWS =         -12521.96
             --------                                   --------

 TOTAL STORAGE CHANGE =        -119776.84         STORAGE CHANGE =         -12472.81
       --------------                             --------------
         LAND SURFACE =         393201.39           LAND SURFACE =           -104.43
            SOIL ZONE =        1595739.31              SOIL ZONE =           -265.16
     UNSATURATED ZONE =       -2862026.76       UNSATURATED ZONE =         -13402.39
       SATURATED ZONE =         548241.93         SATURATED ZONE =           -714.96
                LAKES =         205067.29                  LAKES =           2014.13

 OVERALL BUDGET ERROR =          -8448.35           BUDGET ERROR =            -49.14


  PERCENT DISCREPANCY =             -0.31    PERCENT DISCREPANCY =             -0.39



1
 SUMMARY VOLUMETRIC BUDGET FOR GSFLOW 
 DATE: 02 03 1991              CUMULATIVE TIME STEP:       3
 MODFLOW STRESS PERIOD      6     CURRENT TIME STEP:     126     ITERATIONS:      12

 -----------------------------------------------------------------------------------

   CUMULATIVE VOLUMES               L**3   RATES FOR THIS TIME STEP           L**3/T
   ------------------                      ------------------------

                                     IN                                         IN
                                     --                                         --
        PRECIPITATION =        3228422.31          PRECIPITATION =          30459.53
           STREAMFLOW =                               STREAMFLOW =                  
     GW BOUNDARY FLOW =            708.11       GW BOUNDARY FLOW =              6.38


                                    OUT                                        OUT
                                    ---                                        ---
   EVAPOTRANSPIRATION =        1576847.72     EVAPOTRANSPIRATION =          20018.66
           STREAMFLOW =        1319114.09             STREAMFLOW =          11462.37
     GW BOUNDARY FLOW =           7867.34       GW BOUNDARY FLOW =             62.61

   INFLOWS - OUTFLOWS =         325301.27     INFLOWS - OUTFLOWS =          -1077.71
             --------                                   --------

 TOTAL STORAGE CHANGE =         334089.28         STORAGE CHANGE =          -1029.54
       --------------                             --------------
         LAND SURFACE =         183825.63           LAND SURFACE =         -28756.82
            SOIL ZONE =        2332595.98              SOIL ZONE =          39273.94
     UNSATURATED ZONE =       -2953937.41       UNSATURATED ZONE =         -13032.57
       SATURATED ZONE =         539653.43         SATURATED ZONE =          -1267.25
                LAKES =         231951.65                  LAKES =           2753.16

 OVERALL BUDGET ERROR =          -8788.01           BUDGET ERROR =            -48.17


  PERCENT DISCREPANCY =             -0.27    PERCENT DISCREPANCY =             -0.15



1
 SUMMARY VOLUMETRIC BUDGET FOR GSFLOW 
 DATE: 02 10 1991              CUMULATIVE TIME STEP:      10
 MODFLOW STRESS PERIOD      6     CURRENT TIME STEP:     133     ITERATIONS:      11

 -----------------------------------------------------------------------------------

   CUMULATIVE VOLUMES               L**3   RATES FOR THIS TIME STEP           L**3/T
   ------------------                      ------------------------

                                     IN                                         IN
                                     --                                         --
        PRECIPITATION =        3510173.01          PRECIPITATION =                  
           STREAMFLOW =                               STREAMFLOW =                  
     GW BOUNDARY FLOW =            752.64       GW BOUNDARY FLOW =              6.32


                                    OUT                                        OUT
                                    ---                                        ---
   EVAPOTRANSPIRATION =        1742402.99     EVAPOTRANSPIRATION =          25333.06
           STREAMFLOW =        1399602.32             STREAMFLOW =          11434.26
     GW BOUNDARY FLOW =           8305.62       GW BOUNDARY FLOW =             62.61

   INFLOWS - OUTFLOWS =         360614.73     INFLOWS - OUTFLOWS =         -36823.61
             --------                                   --------

 TOTAL STORAGE CHANGE =         369738.09         STORAGE CHANGE =         -36775.95
       --------------                             --------------
         LAND SURFACE =          90050.80           LAND SURFACE =         -12323.34
            SOIL ZONE =        2538157.14              SOIL ZONE =         -12728.55
     UNSATURATED ZONE =       -3040316.48       UNSATURATED ZONE =         -11910.85
       SATURATED ZONE =         529024.14         SATURATED ZONE =          -1831.55
                LAKES =         252822.48                  LAKES =           2018.34

 OVERALL BUDGET ERROR =          -9123.36           BUDGET ERROR =            -47.66


  PERCENT DISCREPANCY =             -0.26    PERCENT DISCREPANCY =             -0.13



1
 SUMMARY VOLUMETRIC BUDGET FOR GSFLOW 
 DATE: 02 17 1991              CUMULATIVE TIME STEP:      17
 MODFLOW STRESS PERIOD      6     CURRENT TIME STEP:     140     ITERATIONS:      11

 -----------------------------------------------------------------------------------

   CUMULATIVE VOLUMES               L**3   RATES FOR THIS TIME STEP           L**3/T
   ------------------                      ------------------------

                                     IN                                         IN
                                     --                                         --
        PRECIPITATION =        3510173.01          PRECIPITATION =                  
           STREAMFLOW =                               STREAMFLOW =                  
     GW BOUNDARY FLOW =            796.92       GW BOUNDARY FLOW =              6.33


                                    OUT                                        OUT
                                    ---                                        ---
   EVAPOTRANSPIRATION =        1982767.30     EVAPOTRANSPIRATION =          23109.40
           STREAMFLOW =        1479399.43             STREAMFLOW =          11378.37
     GW BOUNDARY FLOW =           8743.87       GW BOUNDARY FLOW =             62.61

   INFLOWS - OUTFLOWS =          40059.34     INFLOWS - OUTFLOWS =         -34544.04
             --------                                   --------

 TOTAL STORAGE CHANGE =          49514.72         STORAGE CHANGE =         -34496.62
       --------------                             --------------
         LAND SURFACE =          18163.74           LAND SURFACE =          -1654.25
            SOIL ZONE =        2372402.60              SOIL ZONE =         -21336.65
     UNSATURATED ZONE =       -3119683.07       UNSATURATED ZONE =         -11020.26
       SATURATED ZONE =         513981.84         SATURATED ZONE =          -2310.66
                LAKES =         264649.62                  LAKES =           1825.20

 OVERALL BUDGET ERROR =          -9455.39           BUDGET ERROR =            -47.42


  PERCENT DISCREPANCY =             -0.27    PERCENT DISCREPANCY =             -0.14



1
 SUMMARY VOLUMETRIC BUDGET FOR GSFLOW 
 DATE: 02 24 1991              CUMULATIVE TIME STEP:      24
 MODFLOW STRESS PERIOD      6     CURRENT TIME STEP:     147     ITERATIONS:      11

 -----------------------------------------------------------------------------------

   CUMULATIVE VOLUMES               L**3   RATES FOR THIS TIME STEP           L**3/T
   ------------------                      ------------------------

                                     IN                                         IN
                                     --                                         --
        PRECIPITATION =        3510173.01          PRECIPITATION =                  
           STREAMFLOW =                               STREAMFLOW =                  
     GW BOUNDARY FLOW =            841.44       GW BOUNDARY FLOW =              6.38


                                    OUT                                        OUT
                                    ---                                        ---
   EVAPOTRANSPIRATION =        2197957.09     EVAPOTRANSPIRATION =          21909.99
           STREAMFLOW =        1558863.88             STREAMFLOW =          11329.81
     GW BOUNDARY FLOW =           9182.10       GW BOUNDARY FLOW =             62.60

   INFLOWS - OUTFLOWS =        -254988.63     INFLOWS - OUTFLOWS =         -33296.02
             --------                                   --------

 TOTAL STORAGE CHANGE =        -245203.77         STORAGE CHANGE =         -33249.18
       --------------                             --------------
         LAND SURFACE =           6686.42           LAND SURFACE =           -239.07
            SOIL ZONE =        2173314.28              SOIL ZONE =         -20933.73
     UNSATURATED ZONE =       -3196353.21       UNSATURATED ZONE =         -10922.41
       SATURATED ZONE =         495581.57         SATURATED ZONE =          -2825.53
                LAKES =         275567.17                  LAKES =           1671.56

 OVERALL BUDGET ERROR =          -9784.86           BUDGET ERROR =            -46.84


  PERCENT DISCREPANCY =             -0.26    PERCENT DISCREPANCY =             -0.14



1
 SUMMARY VOLUMETRIC BUDGET FOR GSFLOW 
 DATE: 03 03 1991              CUMULATIVE TIME STEP:       3
 MODFLOW STRESS PERIOD      7     CURRENT TIME STEP:     154     ITERATIONS:      11

 -----------------------------------------------------------------------------------

   CUMULATIVE VOLUMES               L**3   RATES FOR THIS TIME STEP           L**3/T
   ------------------                      ------------------------

                                     IN                                         IN
                                     --                                         --
        PRECIPITATION =        6220189.63          PRECIPITATION =        1243187.24
           STREAMFLOW =                               STREAMFLOW =                  
     GW BOUNDARY FLOW =            886.38       GW BOUNDARY FLOW =              6.45


                                    OUT                                        OUT
                                    ---                                        ---
   EVAPOTRANSPIRATION =        2349981.79     EVAPOTRANSPIRATION =           8018.72
           STREAMFLOW =        1638218.10             STREAMFLOW =          11643.69
     GW BOUNDARY FLOW =           9620.28       GW BOUNDARY FLOW =             62.61

   INFLOWS - OUTFLOWS =        2223255.84     INFLOWS - OUTFLOWS =        1223468.68
             --------                                   --------

 TOTAL STORAGE CHANGE =        2233365.27         STORAGE CHANGE =        1223514.21
       --------------                             --------------
         LAND SURFACE =        2449993.36           LAND SURFACE =        1024480.87
            SOIL ZONE =        2233539.87              SOIL ZONE =         182867.22
     UNSATURATED ZONE =       -3272120.70       UNSATURATED ZONE =         -10719.28
       SATURATED ZONE =         472961.08         SATURATED ZONE =          -3577.11
                LAKES =         348991.65                  LAKES =          30462.51

 OVERALL BUDGET ERROR =         -10109.43           BUDGET ERROR =            -45.53


  PERCENT DISCREPANCY =             -0.16    PERCENT DISCREPANCY =             -0.00



1
 SUMMARY VOLUMETRIC BUDGET FOR GSFLOW 
 DATE: 03 10 1991              CUMULATIVE TIME STEP:      10
 MODFLOW STRESS PERIOD      7     CURRENT TIME STEP:     161     ITERATIONS:      11

 -----------------------------------------------------------------------------------

   CUMULATIVE VOLUMES               L**3   RATES FOR THIS TIME STEP           L**3/T
   ------------------                      ------------------------

                                     IN                                         IN
                                     --                                         --
        PRECIPITATION =        8746030.42          PRECIPITATION =          32888.55
           STREAMFLOW =                               STREAMFLOW =                  
     GW BOUNDARY FLOW =            907.29       GW BOUNDARY FLOW =              0.09


                                    OUT                                        OUT
                                    ---                                        ---
   EVAPOTRANSPIRATION =        2403211.46     EVAPOTRANSPIRATION =           7155.60
           STREAMFLOW =        1776434.54             STREAMFLOW =          16312.42
     GW BOUNDARY FLOW =          10062.41       GW BOUNDARY FLOW =             63.05

   INFLOWS - OUTFLOWS =        4557229.31     INFLOWS - OUTFLOWS =           9357.57
             --------                                   --------

 TOTAL STORAGE CHANGE =        4567659.62         STORAGE CHANGE =           9403.66
       --------------                             --------------
         LAND SURFACE =        2997179.85           LAND SURFACE =          -5019.13
            SOIL ZONE =        3868924.07              SOIL ZONE =            788.43
     UNSATURATED ZONE =       -3203916.11       UNSATURATED ZONE =          10754.82
       SATURATED ZONE =         460093.08         SATURATED ZONE =          -2224.98
                LAKES =         445378.74                  LAKES =           5104.51

 OVERALL BUDGET ERROR =         -10430.32           BUDGET ERROR =            -46.08


  PERCENT DISCREPANCY =             -0.12    PERCENT DISCREPANCY =             -0.14



1
 SUMMARY VOLUMETRIC BUDGET FOR GSFLOW 
 DATE: 03 17 1991              CUMULATIVE TIME STEP:      17
 MODFLOW STRESS PERIOD      7     CURRENT TIME STEP:     168     ITERATIONS:      12

 -----------------------------------------------------------------------------------

   CUMULATIVE VOLUMES               L**3   RATES FOR THIS TIME STEP           L**3/T
   ------------------                      ------------------------

                                     IN                                         IN
                                     --                                         --
        PRECIPITATION =        9897129.71          PRECIPITATION =         157865.04
           STREAMFLOW =                               STREAMFLOW =                  
     GW BOUNDARY FLOW =            907.56       GW BOUNDARY FLOW =              0.03


                                    OUT                                        OUT
                                    ---                                        ---
   EVAPOTRANSPIRATION =        2425834.20     EVAPOTRANSPIRATION =           6813.22
           STREAMFLOW =        1880816.17             STREAMFLOW =          14253.32
     GW BOUNDARY FLOW =          10520.63       GW BOUNDARY FLOW =             66.26

   INFLOWS - OUTFLOWS =        5580866.28     INFLOWS - OUTFLOWS =         136732.28
             --------                                   --------

 TOTAL STORAGE CHANGE =        5591613.96         STORAGE CHANGE =         136777.84
       --------------                             --------------
         LAND SURFACE =        4102573.46           LAND SURFACE =         148616.44
            SOIL ZONE =        3702643.76              SOIL ZONE =         -20179.58
     UNSATURATED ZONE =       -3156122.21       UNSATURATED ZONE =           3892.59
       SATURATED ZONE =         443417.86         SATURATED ZONE =          -2666.91
                LAKES =         499101.10                  LAKES =           7115.30

 OVERALL BUDGET ERROR =         -10747.68           BUDGET ERROR =            -45.56


  PERCENT DISCREPANCY =             -0.11    PERCENT DISCREPANCY =             -0.03



1
 SUMMARY VOLUMETRIC BUDGET FOR GSFLOW 
 DATE: 03 24 1991              CUMULATIVE TIME STEP:      24
 MODFLOW STRESS PERIOD      7     CURRENT TIME STEP:     175     ITERATIONS:      12

 -----------------------------------------------------------------------------------

   CUMULATIVE VOLUMES               L**3   RATES FOR THIS TIME STEP           L**3/T
   ------------------                      ------------------------

                                     IN                                         IN
                                     --                                         --
        PRECIPITATION =        1.1673D+07          PRECIPITATION =        1230031.83
           STREAMFLOW =                               STREAMFLOW =                  
     GW BOUNDARY FLOW =            907.71       GW BOUNDARY FLOW =              0.02


                                    OUT                                        OUT
                                    ---                                        ---
   EVAPOTRANSPIRATION =        2458782.80     EVAPOTRANSPIRATION =           3892.10
           STREAMFLOW =        1978178.25             STREAMFLOW =          13655.77
     GW BOUNDARY FLOW =          10982.64       GW BOUNDARY FLOW =             65.79

   INFLOWS - OUTFLOWS =        7226075.52     INFLOWS - OUTFLOWS =        1212418.20
             --------                                   --------

 TOTAL STORAGE CHANGE =        7237140.66         STORAGE CHANGE =        1212463.27
       --------------                             --------------
         LAND SURFACE =        5807676.92           LAND SURFACE =        1199128.63
            SOIL ZONE =        3587015.37              SOIL ZONE =         -15436.17
     UNSATURATED ZONE =       -3144034.88       UNSATURATED ZONE =            248.69
       SATURATED ZONE =         423592.76         SATURATED ZONE =          -2960.25
                LAKES =         562890.48                  LAKES =          31482.38

 OVERALL BUDGET ERROR =         -11065.14           BUDGET ERROR =            -45.08


  PERCENT DISCREPANCY =             -0.09    PERCENT DISCREPANCY =             -0.00



1
 SUMMARY VOLUMETRIC BUDGET FOR GSFLOW 
 DATE: 03 31 1991              CUMULATIVE TIME STEP:      31
 MODFLOW STRESS PERIOD      7     CURRENT TIME STEP:     182     ITERATIONS:      16

 -----------------------------------------------------------------------------------

   CUMULATIVE VOLUMES               L**3   RATES FOR THIS TIME STEP           L**3/T
   ------------------                      ------------------------

                                     IN                                         IN
                                     --                                         --
        PRECIPITATION =        1.2495D+07          PRECIPITATION =                  
           STREAMFLOW =                               STREAMFLOW =                  
     GW BOUNDARY FLOW =            907.84       GW BOUNDARY FLOW =              0.02


                                    OUT                                        OUT
                                    ---                                        ---
   EVAPOTRANSPIRATION =        2566213.77     EVAPOTRANSPIRATION =          44187.86
           STREAMFLOW =        2074641.06             STREAMFLOW =          15213.50
     GW BOUNDARY FLOW =          11441.22       GW BOUNDARY FLOW =             65.82

   INFLOWS - OUTFLOWS =        7843937.07     INFLOWS - OUTFLOWS =         -59467.16
             --------                                   --------

 TOTAL STORAGE CHANGE =        7855315.48         STORAGE CHANGE =         -59422.47
       --------------                             --------------
         LAND SURFACE =        6413216.59           LAND SURFACE =        -109288.72
            SOIL ZONE =        3585751.36              SOIL ZONE =          49292.00
     UNSATURATED ZONE =       -3147677.98       UNSATURATED ZONE =           1160.35
       SATURATED ZONE =         403225.34         SATURATED ZONE =          -2839.28
                LAKES =         600800.17                  LAKES =           2253.18

 OVERALL BUDGET ERROR =         -11378.41           BUDGET ERROR =            -44.70


  PERCENT DISCREPANCY =             -0.09    PERCENT DISCREPANCY =             -0.08



1
 SUMMARY VOLUMETRIC BUDGET FOR GSFLOW 
 DATE: 04 07 1991              CUMULATIVE TIME STEP:       7
 MODFLOW STRESS PERIOD      8     CURRENT TIME STEP:     189     ITERATIONS:      21

 -----------------------------------------------------------------------------------

   CUMULATIVE VOLUMES               L**3   RATES FOR THIS TIME STEP           L**3/T
   ------------------                      ------------------------

                                     IN                                         IN
                                     --                                         --
        PRECIPITATION =        1.3018D+07          PRECIPITATION =                  
           STREAMFLOW =                               STREAMFLOW =                  
     GW BOUNDARY FLOW =            907.87       GW BOUNDARY FLOW =                  


                                    OUT                                        OUT
                                    ---                                        ---
   EVAPOTRANSPIRATION =        2851667.55     EVAPOTRANSPIRATION =          13549.99
           STREAMFLOW =        2246588.87             STREAMFLOW =          31277.51
     GW BOUNDARY FLOW =          11926.06       GW BOUNDARY FLOW =             71.66

   INFLOWS - OUTFLOWS =        7908462.14     INFLOWS - OUTFLOWS =         -44899.16
             --------                                   --------

 TOTAL STORAGE CHANGE =        7920152.50         STORAGE CHANGE =         -44856.50
       --------------                             --------------
         LAND SURFACE =        4932509.13           LAND SURFACE =         -57115.15
            SOIL ZONE =        4899152.03              SOIL ZONE =         -50466.81
     UNSATURATED ZONE =       -2975917.61       UNSATURATED ZONE =          48121.41
       SATURATED ZONE =         394624.73         SATURATED ZONE =           1056.27
                LAKES =         669784.22                  LAKES =          13547.77

 OVERALL BUDGET ERROR =         -11690.36           BUDGET ERROR =            -42.66


  PERCENT DISCREPANCY =             -0.09    PERCENT DISCREPANCY =             -0.10



1
 SUMMARY VOLUMETRIC BUDGET FOR GSFLOW 
 DATE: 04 14 1991              CUMULATIVE TIME STEP:      14
 MODFLOW STRESS PERIOD      8     CURRENT TIME STEP:     196     ITERATIONS:      20

 -----------------------------------------------------------------------------------

   CUMULATIVE VOLUMES               L**3   RATES FOR THIS TIME STEP           L**3/T
   ------------------                      ------------------------

                                     IN                                         IN
                                     --                                         --
        PRECIPITATION =        1.3018D+07          PRECIPITATION =                  
           STREAMFLOW =                               STREAMFLOW =                  
     GW BOUNDARY FLOW =            907.87       GW BOUNDARY FLOW =                  


                                    OUT                                        OUT
                                    ---                                        ---
   EVAPOTRANSPIRATION =        3021593.75     EVAPOTRANSPIRATION =          38955.66
           STREAMFLOW =        2464578.06             STREAMFLOW =          31781.62
     GW BOUNDARY FLOW =          12447.73       GW BOUNDARY FLOW =             77.66

   INFLOWS - OUTFLOWS =        7520025.07     INFLOWS - OUTFLOWS =         -70814.94
             --------                                   --------

 TOTAL STORAGE CHANGE =        7532017.10         STORAGE CHANGE =         -70772.04
       --------------                             --------------
         LAND SURFACE =        4345684.95           LAND SURFACE =        -165595.46
            SOIL ZONE =        4695534.36              SOIL ZONE =          41923.26
     UNSATURATED ZONE =       -2685627.91       UNSATURATED ZONE =          36957.66
       SATURATED ZONE =         414008.60         SATURATED ZONE =           3322.55
                LAKES =         762417.11                  LAKES =          12619.95

 OVERALL BUDGET ERROR =         -11992.04           BUDGET ERROR =            -42.90


  PERCENT DISCREPANCY =             -0.09    PERCENT DISCREPANCY =             -0.06



1
 SUMMARY VOLUMETRIC BUDGET FOR GSFLOW 
 DATE: 04 21 1991              CUMULATIVE TIME STEP:      21
 MODFLOW STRESS PERIOD      8     CURRENT TIME STEP:     203     ITERATIONS:      18

 -----------------------------------------------------------------------------------

   CUMULATIVE VOLUMES               L**3   RATES FOR THIS TIME STEP           L**3/T
   ------------------                      ------------------------

                                     IN                                         IN
                                     --                                         --
        PRECIPITATION =        1.3034D+07          PRECIPITATION =                  
           STREAMFLOW =                               STREAMFLOW =                  
     GW BOUNDARY FLOW =            907.87       GW BOUNDARY FLOW =                  


                                    OUT                                        OUT
                                    ---                                        ---
   EVAPOTRANSPIRATION =        3253395.60     EVAPOTRANSPIRATION =          43459.74
           STREAMFLOW =        2693801.25             STREAMFLOW =          35973.69
     GW BOUNDARY FLOW =          13027.11       GW BOUNDARY FLOW =             86.46

   INFLOWS - OUTFLOWS =        7074746.01     INFLOWS - OUTFLOWS =         -79519.89
             --------                                   --------

 TOTAL STORAGE CHANGE =        7087040.40         STORAGE CHANGE =         -79475.81
       --------------                             --------------
         LAND SURFACE =        3236620.47           LAND SURFACE =        -218428.23
            SOIL ZONE =        4964241.74              SOIL ZONE =          71239.38
     UNSATURATED ZONE =       -2424052.61       UNSATURATED ZONE =          43631.43
       SATURATED ZONE =         444723.66         SATURATED ZONE =           5705.28
                LAKES =         865507.14                  LAKES =          18376.32

 OVERALL BUDGET ERROR =         -12294.40           BUDGET ERROR =            -44.08


  PERCENT DISCREPANCY =             -0.09    PERCENT DISCREPANCY =             -0.06



1
 SUMMARY VOLUMETRIC BUDGET FOR GSFLOW 
 DATE: 04 28 1991              CUMULATIVE TIME STEP:      28
 MODFLOW STRESS PERIOD      8     CURRENT TIME STEP:     210     ITERATIONS:      23

 -----------------------------------------------------------------------------------

   CUMULATIVE VOLUMES               L**3   RATES FOR THIS TIME STEP           L**3/T
   ------------------                      ------------------------

                                     IN                                         IN
                                     --                                         --
        PRECIPITATION =        1.3303D+07          PRECIPITATION =                  
           STREAMFLOW =                               STREAMFLOW =                  
     GW BOUNDARY FLOW =            907.87       GW BOUNDARY FLOW =                  


                                    OUT                                        OUT
                                    ---                                        ---
   EVAPOTRANSPIRATION =        3500353.66     EVAPOTRANSPIRATION =          55283.23
           STREAMFLOW =        2946878.13             STREAMFLOW =          35314.22
     GW BOUNDARY FLOW =          13632.18       GW BOUNDARY FLOW =             86.37

   INFLOWS - OUTFLOWS =        6843474.41     INFLOWS - OUTFLOWS =         -90683.82
             --------                                   --------

 TOTAL STORAGE CHANGE =        6856073.61         STORAGE CHANGE =         -90640.68
       --------------                             --------------
         LAND SURFACE =        2514889.37           LAND SURFACE =        -154565.96
            SOIL ZONE =        4964634.11              SOIL ZONE =          -2215.42
     UNSATURATED ZONE =       -2133836.22       UNSATURATED ZONE =          37288.65
       SATURATED ZONE =         503973.02         SATURATED ZONE =           9630.37
                LAKES =        1006413.35                  LAKES =          19221.67

 OVERALL BUDGET ERROR =         -12599.20           BUDGET ERROR =            -43.14


  PERCENT DISCREPANCY =             -0.09    PERCENT DISCREPANCY =             -0.05



1
 SUMMARY VOLUMETRIC BUDGET FOR GSFLOW 
 DATE: 05 05 1991              CUMULATIVE TIME STEP:       5
 MODFLOW STRESS PERIOD      9     CURRENT TIME STEP:     217     ITERATIONS:      24

 -----------------------------------------------------------------------------------

   CUMULATIVE VOLUMES               L**3   RATES FOR THIS TIME STEP           L**3/T
   ------------------                      ------------------------

                                     IN                                         IN
                                     --                                         --
        PRECIPITATION =        1.3510D+07          PRECIPITATION =                  
           STREAMFLOW =                               STREAMFLOW =                  
     GW BOUNDARY FLOW =            907.87       GW BOUNDARY FLOW =                  


                                    OUT                                        OUT
                                    ---                                        ---
   EVAPOTRANSPIRATION =        3849423.22     EVAPOTRANSPIRATION =          84817.23
           STREAMFLOW =        3169209.76             STREAMFLOW =          30855.19
     GW BOUNDARY FLOW =          14232.11       GW BOUNDARY FLOW =             84.18

   INFLOWS - OUTFLOWS =        6477750.93     INFLOWS - OUTFLOWS =        -115756.60
             --------                                   --------

 TOTAL STORAGE CHANGE =        6490648.74         STORAGE CHANGE =        -115713.44
       --------------                             --------------
         LAND SURFACE =        1724291.84           LAND SURFACE =        -182304.29
            SOIL ZONE =        4938909.87              SOIL ZONE =           -559.87
     UNSATURATED ZONE =       -1895362.89       UNSATURATED ZONE =          34703.80
       SATURATED ZONE =         579580.16         SATURATED ZONE =          11700.13
                LAKES =        1143229.75                  LAKES =          20746.79

 OVERALL BUDGET ERROR =         -12897.81           BUDGET ERROR =            -43.17


  PERCENT DISCREPANCY =             -0.10    PERCENT DISCREPANCY =             -0.04



1
 SUMMARY VOLUMETRIC BUDGET FOR GSFLOW 
 DATE: 05 12 1991              CUMULATIVE TIME STEP:      12
 MODFLOW STRESS PERIOD      9     CURRENT TIME STEP:     224     ITERATIONS:      24

 -----------------------------------------------------------------------------------

   CUMULATIVE VOLUMES               L**3   RATES FOR THIS TIME STEP           L**3/T
   ------------------                      ------------------------

                                     IN                                         IN
                                     --                                         --
        PRECIPITATION =        1.4029D+07          PRECIPITATION =                  
           STREAMFLOW =                               STREAMFLOW =                  
     GW BOUNDARY FLOW =            907.87       GW BOUNDARY FLOW =                  


                                    OUT                                        OUT
                                    ---                                        ---
   EVAPOTRANSPIRATION =        4219352.17     EVAPOTRANSPIRATION =          62594.93
           STREAMFLOW =        3371372.30             STREAMFLOW =          29539.09
     GW BOUNDARY FLOW =          14808.71       GW BOUNDARY FLOW =             81.16

   INFLOWS - OUTFLOWS =        6424596.86     INFLOWS - OUTFLOWS =         -92215.19
             --------                                   --------

 TOTAL STORAGE CHANGE =        6437793.93         STORAGE CHANGE =         -92173.35
       --------------                             --------------
         LAND SURFACE =        1222798.56           LAND SURFACE =        -211614.89
            SOIL ZONE =        4928962.41              SOIL ZONE =          56891.14
     UNSATURATED ZONE =       -1683491.58       UNSATURATED ZONE =          27238.20
       SATURATED ZONE =         670734.97         SATURATED ZONE =          13761.88
                LAKES =        1298789.57                  LAKES =          21550.31

 OVERALL BUDGET ERROR =         -13197.07           BUDGET ERROR =            -41.84


  PERCENT DISCREPANCY =             -0.09    PERCENT DISCREPANCY =             -0.05



1
 SUMMARY VOLUMETRIC BUDGET FOR GSFLOW 
 DATE: 05 19 1991              CUMULATIVE TIME STEP:      19
 MODFLOW STRESS PERIOD      9     CURRENT TIME STEP:     231     ITERATIONS:      28

 -----------------------------------------------------------------------------------

   CUMULATIVE VOLUMES               L**3   RATES FOR THIS TIME STEP           L**3/T
   ------------------                      ------------------------

                                     IN                                         IN
                                     --                                         --
        PRECIPITATION =        1.4365D+07          PRECIPITATION =                  
           STREAMFLOW =                               STREAMFLOW =                  
     GW BOUNDARY FLOW =            907.87       GW BOUNDARY FLOW =                  


                                    OUT                                        OUT
                                    ---                                        ---
   EVAPOTRANSPIRATION =        4619461.01     EVAPOTRANSPIRATION =          17977.42
           STREAMFLOW =        3552560.11             STREAMFLOW =          23832.80
     GW BOUNDARY FLOW =          15360.01       GW BOUNDARY FLOW =             77.06

   INFLOWS - OUTFLOWS =        6178905.05     INFLOWS - OUTFLOWS =         -41887.28
             --------                                   --------

 TOTAL STORAGE CHANGE =        6192402.77         STORAGE CHANGE =         -41844.58
       --------------                             --------------
         LAND SURFACE =         708232.16           LAND SURFACE =         -20476.85
            SOIL ZONE =        4779242.83              SOIL ZONE =         -72578.58
     UNSATURATED ZONE =       -1519185.51       UNSATURATED ZONE =          17248.53
       SATURATED ZONE =         775384.29         SATURATED ZONE =          15601.37
                LAKES =        1448729.00                  LAKES =          18360.96

 OVERALL BUDGET ERROR =         -13497.72           BUDGET ERROR =            -42.70


  PERCENT DISCREPANCY =             -0.09    PERCENT DISCREPANCY =             -0.10



1
 SUMMARY VOLUMETRIC BUDGET FOR GSFLOW 
 DATE: 05 26 1991              CUMULATIVE TIME STEP:      26
 MODFLOW STRESS PERIOD      9     CURRENT TIME STEP:     238     ITERATIONS:      30

 -----------------------------------------------------------------------------------

   CUMULATIVE VOLUMES               L**3   RATES FOR THIS TIME STEP           L**3/T
   ------------------                      ------------------------

                                     IN                                         IN
                                     --                                         --
        PRECIPITATION =        1.4426D+07          PRECIPITATION =                  
           STREAMFLOW =                               STREAMFLOW =                  
     GW BOUNDARY FLOW =            907.87       GW BOUNDARY FLOW =                  


                                    OUT                                        OUT
                                    ---                                        ---
   EVAPOTRANSPIRATION =        5266816.40     EVAPOTRANSPIRATION =          71093.69
           STREAMFLOW =        3700498.05             STREAMFLOW =          18115.52
     GW BOUNDARY FLOW =          15884.96       GW BOUNDARY FLOW =             73.44

   INFLOWS - OUTFLOWS =        5444206.08     INFLOWS - OUTFLOWS =         -89282.64
             --------                                   --------

 TOTAL STORAGE CHANGE =        5458012.54         STORAGE CHANGE =         -89237.03
       --------------                             --------------
         LAND SURFACE =         283688.14           LAND SURFACE =         -27762.44
            SOIL ZONE =        4187971.78              SOIL ZONE =         -86988.44
     UNSATURATED ZONE =       -1450184.52       UNSATURATED ZONE =           -420.77
       SATURATED ZONE =         884039.01         SATURATED ZONE =          15272.88
                LAKES =        1552498.14                  LAKES =          10661.75

 OVERALL BUDGET ERROR =         -13806.47           BUDGET ERROR =            -45.61


  PERCENT DISCREPANCY =             -0.10    PERCENT DISCREPANCY =             -0.05



1
 SUMMARY VOLUMETRIC BUDGET FOR GSFLOW 
 DATE: 06 02 1991              CUMULATIVE TIME STEP:       2
 MODFLOW STRESS PERIOD     10     CURRENT TIME STEP:     245     ITERATIONS:      21

 -----------------------------------------------------------------------------------

   CUMULATIVE VOLUMES               L**3   RATES FOR THIS TIME STEP           L**3/T
   ------------------                      ------------------------

                                     IN                                         IN
                                     --                                         --
        PRECIPITATION =        1.4671D+07          PRECIPITATION =                  
           STREAMFLOW =                               STREAMFLOW =                  
     GW BOUNDARY FLOW =            907.87       GW BOUNDARY FLOW =                  


                                    OUT                                        OUT
                                    ---                                        ---
   EVAPOTRANSPIRATION =        5811763.06     EVAPOTRANSPIRATION =         119396.93
           STREAMFLOW =        3819776.25             STREAMFLOW =          16178.76
     GW BOUNDARY FLOW =          16387.19       GW BOUNDARY FLOW =             70.56

   INFLOWS - OUTFLOWS =        5023956.17     INFLOWS - OUTFLOWS =        -135646.24
             --------                                   --------

 TOTAL STORAGE CHANGE =        5038097.03         STORAGE CHANGE =        -135597.44
       --------------                             --------------
         LAND SURFACE =         133141.95           LAND SURFACE =         -21748.77
            SOIL ZONE =        3790596.26              SOIL ZONE =        -126210.85
     UNSATURATED ZONE =       -1487556.33       UNSATURATED ZONE =          -7341.87
       SATURATED ZONE =         983864.69         SATURATED ZONE =          13283.33
                LAKES =        1618050.45                  LAKES =           6420.72

 OVERALL BUDGET ERROR =         -14140.85           BUDGET ERROR =            -48.81


  PERCENT DISCREPANCY =             -0.10    PERCENT DISCREPANCY =             -0.04



1
 SUMMARY VOLUMETRIC BUDGET FOR GSFLOW 
 DATE: 06 09 1991              CUMULATIVE TIME STEP:       9
 MODFLOW STRESS PERIOD     10     CURRENT TIME STEP:     252     ITERATIONS:      19

 -----------------------------------------------------------------------------------

   CUMULATIVE VOLUMES               L**3   RATES FOR THIS TIME STEP           L**3/T
   ------------------                      ------------------------

                                     IN                                         IN
                                     --                                         --
        PRECIPITATION =        1.4671D+07          PRECIPITATION =                  
           STREAMFLOW =                               STREAMFLOW =                  
     GW BOUNDARY FLOW =            907.87       GW BOUNDARY FLOW =                  


                                    OUT                                        OUT
                                    ---                                        ---
   EVAPOTRANSPIRATION =        6528108.77     EVAPOTRANSPIRATION =         166491.05
           STREAMFLOW =        3923969.24             STREAMFLOW =          14105.64
     GW BOUNDARY FLOW =          16870.80       GW BOUNDARY FLOW =             68.02

   INFLOWS - OUTFLOWS =        4202933.86     INFLOWS - OUTFLOWS =        -180664.71
             --------                                   --------

 TOTAL STORAGE CHANGE =        4217428.71         STORAGE CHANGE =        -180612.99
       --------------                             --------------
         LAND SURFACE =          42792.54           LAND SURFACE =         -14518.27
            SOIL ZONE =        3039156.10              SOIL ZONE =        -161988.77
     UNSATURATED ZONE =       -1574169.41       UNSATURATED ZONE =         -15173.00
       SATURATED ZONE =        1061429.42         SATURATED ZONE =           9412.73
                LAKES =        1648220.05                  LAKES =           1654.32

 OVERALL BUDGET ERROR =         -14494.84           BUDGET ERROR =            -51.72


  PERCENT DISCREPANCY =             -0.10    PERCENT DISCREPANCY =             -0.03



1
 SUMMARY VOLUMETRIC BUDGET FOR GSFLOW 
 DATE: 06 16 1991              CUMULATIVE TIME STEP:      16
 MODFLOW STRESS PERIOD     10     CURRENT TIME STEP:     259     ITERATIONS:      23

 -----------------------------------------------------------------------------------

   CUMULATIVE VOLUMES               L**3   RATES FOR THIS TIME STEP           L**3/T
   ------------------                      ------------------------

                                     IN                                         IN
                                     --                                         --
        PRECIPITATION =        1.4671D+07          PRECIPITATION =                  
           STREAMFLOW =                               STREAMFLOW =                  
     GW BOUNDARY FLOW =            907.89       GW BOUNDARY FLOW =        8.5256D-03


                                    OUT                                        OUT
                                    ---                                        ---
   EVAPOTRANSPIRATION =        7476564.91     EVAPOTRANSPIRATION =         104440.08
           STREAMFLOW =        4010417.16             STREAMFLOW =          11656.99
     GW BOUNDARY FLOW =          17334.16       GW BOUNDARY FLOW =             65.31

   INFLOWS - OUTFLOWS =        3167566.47     INFLOWS - OUTFLOWS =        -116162.37
             --------                                   --------

 TOTAL STORAGE CHANGE =        3182425.89         STORAGE CHANGE =        -116111.09
       --------------                             --------------
         LAND SURFACE =           5456.07           LAND SURFACE =          -1579.06
[...]
       SATURATED ZONE =        1205169.35         SATURATED ZONE =           9449.39
                LAKES =        1.9378D+07                  LAKES =          -2309.29

 OVERALL BUDGET ERROR =        -593726.06           BUDGET ERROR =           -855.68


  PERCENT DISCREPANCY =             -0.44    PERCENT DISCREPANCY =             -0.88



1
 SUMMARY VOLUMETRIC BUDGET FOR GSFLOW 
 DATE: 09 03 1995              CUMULATIVE TIME STEP:       3
 MODFLOW STRESS PERIOD     61     CURRENT TIME STEP:    1799     ITERATIONS:      29

 -----------------------------------------------------------------------------------

   CUMULATIVE VOLUMES               L**3   RATES FOR THIS TIME STEP           L**3/T
   ------------------                      ------------------------

                                     IN                                         IN
                                     --                                         --
        PRECIPITATION =        1.3351D+08          PRECIPITATION =                  
           STREAMFLOW =                               STREAMFLOW =                  
     GW BOUNDARY FLOW =           7860.94       GW BOUNDARY FLOW =              0.87


                                    OUT                                        OUT
                                    ---                                        ---
   EVAPOTRANSPIRATION =        7.1838D+07     EVAPOTRANSPIRATION =          74269.24
           STREAMFLOW =        4.0395D+07             STREAMFLOW =          14098.43
     GW BOUNDARY FLOW =         113438.91       GW BOUNDARY FLOW =             66.28

   INFLOWS - OUTFLOWS =        2.1170D+07     INFLOWS - OUTFLOWS =         -88433.09
             --------                                   --------

 TOTAL STORAGE CHANGE =        2.1769D+07         STORAGE CHANGE =         -88395.32
       --------------                             --------------
         LAND SURFACE =         263692.07           LAND SURFACE =         -15036.91
            SOIL ZONE =        1190156.74              SOIL ZONE =         -41767.48
     UNSATURATED ZONE =        -288422.59       UNSATURATED ZONE =         -32424.27
       SATURATED ZONE =        1247146.12         SATURATED ZONE =           4522.01
                LAKES =        1.9356D+07                  LAKES =          -3688.68

 OVERALL BUDGET ERROR =        -598396.10           BUDGET ERROR =            -37.76


  PERCENT DISCREPANCY =             -0.45    PERCENT DISCREPANCY =             -0.04



1
 SUMMARY VOLUMETRIC BUDGET FOR GSFLOW 
 DATE: 09 10 1995              CUMULATIVE TIME STEP:      10
 MODFLOW STRESS PERIOD     61     CURRENT TIME STEP:    1806     ITERATIONS:      30

 -----------------------------------------------------------------------------------

   CUMULATIVE VOLUMES               L**3   RATES FOR THIS TIME STEP           L**3/T
   ------------------                      ------------------------

                                     IN                                         IN
                                     --                                         --
        PRECIPITATION =        1.3351D+08          PRECIPITATION =                  
           STREAMFLOW =                               STREAMFLOW =                  
     GW BOUNDARY FLOW =           7870.08       GW BOUNDARY FLOW =              1.62


                                    OUT                                        OUT
                                    ---                                        ---
   EVAPOTRANSPIRATION =        7.2257D+07     EVAPOTRANSPIRATION =          56212.99
           STREAMFLOW =        4.0496D+07             STREAMFLOW =          14465.03
     GW BOUNDARY FLOW =         113904.59       GW BOUNDARY FLOW =             66.61

   INFLOWS - OUTFLOWS =        2.0649D+07     INFLOWS - OUTFLOWS =         -70743.02
             --------                                   --------

 TOTAL STORAGE CHANGE =        2.1248D+07         STORAGE CHANGE =         -70705.78
       --------------                             --------------
         LAND SURFACE =         186300.21           LAND SURFACE =          -9570.80
            SOIL ZONE =         961099.65              SOIL ZONE =         -30174.12
     UNSATURATED ZONE =        -500406.37       UNSATURATED ZONE =         -28566.99
       SATURATED ZONE =        1269059.25         SATURATED ZONE =           1280.72
                LAKES =        1.9332D+07                  LAKES =          -3674.59

 OVERALL BUDGET ERROR =        -598658.44           BUDGET ERROR =            -37.23


  PERCENT DISCREPANCY =             -0.45    PERCENT DISCREPANCY =             -0.05



1
 SUMMARY VOLUMETRIC BUDGET FOR GSFLOW 
 DATE: 09 17 1995              CUMULATIVE TIME STEP:      17
 MODFLOW STRESS PERIOD     61     CURRENT TIME STEP:    1813     ITERATIONS:      31

 -----------------------------------------------------------------------------------

   CUMULATIVE VOLUMES               L**3   RATES FOR THIS TIME STEP           L**3/T
   ------------------                      ------------------------

                                     IN                                         IN
                                     --                                         --
        PRECIPITATION =        1.3351D+08          PRECIPITATION =                  
           STREAMFLOW =                               STREAMFLOW =                  
     GW BOUNDARY FLOW =           7884.09       GW BOUNDARY FLOW =              2.27


                                    OUT                                        OUT
                                    ---                                        ---
   EVAPOTRANSPIRATION =        7.2718D+07     EVAPOTRANSPIRATION =          53467.98
           STREAMFLOW =        4.0593D+07             STREAMFLOW =          14117.65
     GW BOUNDARY FLOW =         114370.02       GW BOUNDARY FLOW =             66.63

   INFLOWS - OUTFLOWS =        2.0091D+07     INFLOWS - OUTFLOWS =         -67649.98
             --------                                   --------

 TOTAL STORAGE CHANGE =        2.0690D+07         STORAGE CHANGE =         -67613.65
       --------------                             --------------
         LAND SURFACE =         118893.39           LAND SURFACE =          -7099.30
            SOIL ZONE =         716784.85              SOIL ZONE =         -27296.04
     UNSATURATED ZONE =        -692211.16       UNSATURATED ZONE =         -27089.25
       SATURATED ZONE =        1249677.07         SATURATED ZONE =          -1613.88
                LAKES =        1.9297D+07                  LAKES =          -4515.18

 OVERALL BUDGET ERROR =        -598912.48           BUDGET ERROR =            -36.33


  PERCENT DISCREPANCY =             -0.45    PERCENT DISCREPANCY =             -0.05



1
 SUMMARY VOLUMETRIC BUDGET FOR GSFLOW 
 DATE: 09 24 1995              CUMULATIVE TIME STEP:      24
 MODFLOW STRESS PERIOD     61     CURRENT TIME STEP:    1820     ITERATIONS:      25

 -----------------------------------------------------------------------------------

   CUMULATIVE VOLUMES               L**3   RATES FOR THIS TIME STEP           L**3/T
   ------------------                      ------------------------

                                     IN                                         IN
                                     --                                         --
        PRECIPITATION =        1.3351D+08          PRECIPITATION =                  
           STREAMFLOW =                               STREAMFLOW =                  
     GW BOUNDARY FLOW =           7902.24       GW BOUNDARY FLOW =              2.82


                                    OUT                                        OUT
                                    ---                                        ---
   EVAPOTRANSPIRATION =        7.3053D+07     EVAPOTRANSPIRATION =          34655.45
           STREAMFLOW =        4.0692D+07             STREAMFLOW =          14681.88
     GW BOUNDARY FLOW =         114836.52       GW BOUNDARY FLOW =             66.76

   INFLOWS - OUTFLOWS =        1.9657D+07     INFLOWS - OUTFLOWS =         -49401.27
             --------                                   --------

 TOTAL STORAGE CHANGE =        2.0256D+07         STORAGE CHANGE =         -49365.35
       --------------                             --------------
         LAND SURFACE =          78409.47           LAND SURFACE =          -3987.06
            SOIL ZONE =         556839.17              SOIL ZONE =         -14953.00
     UNSATURATED ZONE =        -872753.89       UNSATURATED ZONE =         -24539.04
       SATURATED ZONE =        1227695.72         SATURATED ZONE =          -2094.35
                LAKES =        1.9266D+07                  LAKES =          -3791.90

 OVERALL BUDGET ERROR =        -599163.33           BUDGET ERROR =            -35.91


  PERCENT DISCREPANCY =             -0.45    PERCENT DISCREPANCY =             -0.07



1
 SUMMARY VOLUMETRIC BUDGET FOR GSFLOW 
 DATE: 10 01 1995              CUMULATIVE TIME STEP:       1
 MODFLOW STRESS PERIOD     62     CURRENT TIME STEP:    1827     ITERATIONS:      34

 -----------------------------------------------------------------------------------

   CUMULATIVE VOLUMES               L**3   RATES FOR THIS TIME STEP           L**3/T
   ------------------                      ------------------------

                                     IN                                         IN
                                     --                                         --
        PRECIPITATION =        1.3351D+08          PRECIPITATION =                  
           STREAMFLOW =                               STREAMFLOW =                  
     GW BOUNDARY FLOW =           7923.99       GW BOUNDARY FLOW =              3.31


                                    OUT                                        OUT
                                    ---                                        ---
   EVAPOTRANSPIRATION =        7.3192D+07     EVAPOTRANSPIRATION =          20912.90
           STREAMFLOW =        4.0800D+07             STREAMFLOW =          15414.12
     GW BOUNDARY FLOW =         115304.92       GW BOUNDARY FLOW =             66.89

   INFLOWS - OUTFLOWS =        1.9409D+07     INFLOWS - OUTFLOWS =         -36390.59
             --------                                   --------

 TOTAL STORAGE CHANGE =        2.0009D+07         STORAGE CHANGE =         -36354.86
       --------------                             --------------
         LAND SURFACE =          61950.22           LAND SURFACE =          -2003.31
            SOIL ZONE =         509083.42              SOIL ZONE =          -7671.63
     UNSATURATED ZONE =       -1031936.07       UNSATURATED ZONE =         -21745.37
       SATURATED ZONE =        1223315.02         SATURATED ZONE =          -2084.63
                LAKES =        1.9246D+07                  LAKES =          -2849.93

 OVERALL BUDGET ERROR =        -599415.82           BUDGET ERROR =            -35.73


  PERCENT DISCREPANCY =             -0.45    PERCENT DISCREPANCY =             -0.10



1
 SUMMARY VOLUMETRIC BUDGET FOR GSFLOW 
 DATE: 10 08 1995              CUMULATIVE TIME STEP:       8
 MODFLOW STRESS PERIOD     62     CURRENT TIME STEP:    1834     ITERATIONS:      30

 -----------------------------------------------------------------------------------

   CUMULATIVE VOLUMES               L**3   RATES FOR THIS TIME STEP           L**3/T
   ------------------                      ------------------------

                                     IN                                         IN
                                     --                                         --
        PRECIPITATION =        1.3351D+08          PRECIPITATION =                  
           STREAMFLOW =                               STREAMFLOW =                  
     GW BOUNDARY FLOW =           7948.98       GW BOUNDARY FLOW =              3.76


                                    OUT                                        OUT
                                    ---                                        ---
   EVAPOTRANSPIRATION =        7.3353D+07     EVAPOTRANSPIRATION =          20311.93
           STREAMFLOW =        4.0907D+07             STREAMFLOW =          15377.57
     GW BOUNDARY FLOW =         115772.38       GW BOUNDARY FLOW =             66.75

   INFLOWS - OUTFLOWS =        1.9140D+07     INFLOWS - OUTFLOWS =         -35752.49
             --------                                   --------

 TOTAL STORAGE CHANGE =        1.9740D+07         STORAGE CHANGE =         -35717.19
       --------------                             --------------
         LAND SURFACE =          47992.54           LAND SURFACE =          -1642.25
            SOIL ZONE =         447954.54              SOIL ZONE =          -7121.27
     UNSATURATED ZONE =       -1180535.45       UNSATURATED ZONE =         -20332.95
       SATURATED ZONE =        1200177.72         SATURATED ZONE =          -3636.48
                LAKES =        1.9224D+07                  LAKES =          -2984.25

 OVERALL BUDGET ERROR =        -599665.58           BUDGET ERROR =            -35.30


  PERCENT DISCREPANCY =             -0.45    PERCENT DISCREPANCY =             -0.10



1
 SUMMARY VOLUMETRIC BUDGET FOR GSFLOW 
 DATE: 10 15 1995              CUMULATIVE TIME STEP:      15
 MODFLOW STRESS PERIOD     62     CURRENT TIME STEP:    1841     ITERATIONS:      29

 -----------------------------------------------------------------------------------

   CUMULATIVE VOLUMES               L**3   RATES FOR THIS TIME STEP           L**3/T
   ------------------                      ------------------------

                                     IN                                         IN
                                     --                                         --
        PRECIPITATION =        1.3351D+08          PRECIPITATION =                  
           STREAMFLOW =                               STREAMFLOW =                  
     GW BOUNDARY FLOW =           7976.90       GW BOUNDARY FLOW =              4.16


                                    OUT                                        OUT
                                    ---                                        ---
   EVAPOTRANSPIRATION =        7.3512D+07     EVAPOTRANSPIRATION =          25394.66
           STREAMFLOW =        4.1013D+07             STREAMFLOW =          15068.64
     GW BOUNDARY FLOW =         116238.57       GW BOUNDARY FLOW =             66.47

   INFLOWS - OUTFLOWS =        1.8874D+07     INFLOWS - OUTFLOWS =         -40525.62
             --------                                   --------

 TOTAL STORAGE CHANGE =        1.9474D+07         STORAGE CHANGE =         -40490.82
       --------------                             --------------
         LAND SURFACE =          35939.52           LAND SURFACE =          -1723.61
            SOIL ZONE =         389471.47              SOIL ZONE =          -9672.29
     UNSATURATED ZONE =       -1316198.12       UNSATURATED ZONE =         -19143.93
       SATURATED ZONE =        1163560.68         SATURATED ZONE =          -6377.55
                LAKES =        1.9201D+07                  LAKES =          -3573.45

 OVERALL BUDGET ERROR =        -599905.85           BUDGET ERROR =            -34.80


  PERCENT DISCREPANCY =             -0.45    PERCENT DISCREPANCY =             -0.09



1
 SUMMARY VOLUMETRIC BUDGET FOR GSFLOW 
 DATE: 10 22 1995              CUMULATIVE TIME STEP:      22
 MODFLOW STRESS PERIOD     62     CURRENT TIME STEP:    1848     ITERATIONS:      30

 -----------------------------------------------------------------------------------

   CUMULATIVE VOLUMES               L**3   RATES FOR THIS TIME STEP           L**3/T
   ------------------                      ------------------------

                                     IN                                         IN
                                     --                                         --
        PRECIPITATION =        1.3351D+08          PRECIPITATION =                  
           STREAMFLOW =                               STREAMFLOW =                  
     GW BOUNDARY FLOW =           8007.46       GW BOUNDARY FLOW =              4.52


                                    OUT                                        OUT
                                    ---                                        ---
   EVAPOTRANSPIRATION =        7.3657D+07     EVAPOTRANSPIRATION =           6389.19
           STREAMFLOW =        4.1120D+07             STREAMFLOW =          16083.76
     GW BOUNDARY FLOW =         116703.40       GW BOUNDARY FLOW =             66.54

   INFLOWS - OUTFLOWS =        1.8622D+07     INFLOWS - OUTFLOWS =         -22534.97
             --------                                   --------

 TOTAL STORAGE CHANGE =        1.9223D+07         STORAGE CHANGE =         -22499.16
       --------------                             --------------
         LAND SURFACE =          26658.77           LAND SURFACE =           -438.68
            SOIL ZONE =         339543.54              SOIL ZONE =           -512.45
     UNSATURATED ZONE =       -1448616.64       UNSATURATED ZONE =         -18514.04
       SATURATED ZONE =        1126758.59         SATURATED ZONE =          -1031.87
                LAKES =        1.9178D+07                  LAKES =          -2002.12

 OVERALL BUDGET ERROR =        -600151.29           BUDGET ERROR =            -35.82


  PERCENT DISCREPANCY =             -0.45    PERCENT DISCREPANCY =             -0.16



1
 SUMMARY VOLUMETRIC BUDGET FOR GSFLOW 
 DATE: 10 29 1995              CUMULATIVE TIME STEP:      29
 MODFLOW STRESS PERIOD     62     CURRENT TIME STEP:    1855     ITERATIONS:      25

 -----------------------------------------------------------------------------------

   CUMULATIVE VOLUMES               L**3   RATES FOR THIS TIME STEP           L**3/T
   ------------------                      ------------------------

                                     IN                                         IN
                                     --                                         --
        PRECIPITATION =        1.3351D+08          PRECIPITATION =                  
           STREAMFLOW =                               STREAMFLOW =                  
     GW BOUNDARY FLOW =           8040.36       GW BOUNDARY FLOW =              4.84


                                    OUT                                        OUT
                                    ---                                        ---
   EVAPOTRANSPIRATION =        7.3748D+07     EVAPOTRANSPIRATION =          15892.83
           STREAMFLOW =        4.1230D+07             STREAMFLOW =          15476.55
     GW BOUNDARY FLOW =         117167.46       GW BOUNDARY FLOW =             66.13

   INFLOWS - OUTFLOWS =        1.8421D+07     INFLOWS - OUTFLOWS =         -31430.68
             --------                                   --------

 TOTAL STORAGE CHANGE =        1.9021D+07         STORAGE CHANGE =         -31396.29
       --------------                             --------------
         LAND SURFACE =          22594.51           LAND SURFACE =           -917.38
            SOIL ZONE =         315240.97              SOIL ZONE =          -4487.71
     UNSATURATED ZONE =       -1574095.34       UNSATURATED ZONE =         -17497.88
       SATURATED ZONE =        1097994.34         SATURATED ZONE =          -5454.25
                LAKES =        1.9160D+07                  LAKES =          -3039.06

 OVERALL BUDGET ERROR =        -600391.64           BUDGET ERROR =            -34.39


  PERCENT DISCREPANCY =             -0.45    PERCENT DISCREPANCY =             -0.11



