1
 SUMMARY VOLUMETRIC BUDGET FOR GSFLOW 
 DATE: 10 07 1990              CUMULATIVE TIME STEP:       7
 MODFLOW STRESS PERIOD      2     CURRENT TIME STEP:       7     ITERATIONS:       8

 -----------------------------------------------------------------------------------

   CUMULATIVE VOLUMES               L**3   RATES FOR THIS TIME STEP           L**3/T
   ------------------                      ------------------------

                                     IN                                         IN
                                     --                                         --
        PRECIPITATION =                            PRECIPITATION =                  
           STREAMFLOW =                               STREAMFLOW =                  
     GW BOUNDARY FLOW =                         GW BOUNDARY FLOW =                  


                                    OUT                                        OUT
                                    ---                                        ---
   EVAPOTRANSPIRATION =         394931.93     EVAPOTRANSPIRATION =          13151.86
           STREAMFLOW =          55513.17             STREAMFLOW =           8826.57
     GW BOUNDARY FLOW =            253.88       GW BOUNDARY FLOW =             36.36

   INFLOWS - OUTFLOWS =        -450698.98     INFLOWS - OUTFLOWS =         -22014.79
             --------                                   --------

 TOTAL STORAGE CHANGE =        -449901.54         STORAGE CHANGE =         -21952.88
       --------------                             --------------
         LAND SURFACE =                             LAND SURFACE =                  
            SOIL ZONE =        -365821.32              SOIL ZONE =          -8150.68
     UNSATURATED ZONE =        -240352.18       UNSATURATED ZONE =         -32213.30
       SATURATED ZONE =         156271.97         SATURATED ZONE =          18411.11

 OVERALL BUDGET ERROR =           -797.44           BUDGET ERROR =            -61.91


  PERCENT DISCREPANCY =             -0.18    PERCENT DISCREPANCY =             -0.28



1
 SUMMARY VOLUMETRIC BUDGET FOR GSFLOW 
 DATE: 10 14 1990              CUMULATIVE TIME STEP:      14
 MODFLOW STRESS PERIOD      2     CURRENT TIME STEP:      14     ITERATIONS:       6

 -----------------------------------------------------------------------------------

   CUMULATIVE VOLUMES               L**3   RATES FOR THIS TIME STEP           L**3/T
   ------------------                      ------------------------

                                     IN                                         IN
                                     --                                         --
        PRECIPITATION =                            PRECIPITATION =                  
           STREAMFLOW =                               STREAMFLOW =                  
     GW BOUNDARY FLOW =                         GW BOUNDARY FLOW =                  


                                    OUT                                        OUT
                                    ---                                        ---
   EVAPOTRANSPIRATION =         715993.19     EVAPOTRANSPIRATION =          59027.20
           STREAMFLOW =         116093.22             STREAMFLOW =           8771.47
     GW BOUNDARY FLOW =            508.42       GW BOUNDARY FLOW =             36.38

   INFLOWS - OUTFLOWS =        -832594.82     INFLOWS - OUTFLOWS =         -67835.05
             --------                                   --------

 TOTAL STORAGE CHANGE =        -831340.09         STORAGE CHANGE =         -67776.69
       --------------                             --------------
         LAND SURFACE =                             LAND SURFACE =                  
            SOIL ZONE =        -553741.28              SOIL ZONE =         -34181.73
     UNSATURATED ZONE =        -532023.56       UNSATURATED ZONE =         -45210.23
       SATURATED ZONE =         254424.75         SATURATED ZONE =          11615.27

 OVERALL BUDGET ERROR =          -1254.73           BUDGET ERROR =            -58.36


  PERCENT DISCREPANCY =             -0.15    PERCENT DISCREPANCY =             -0.09



1
 SUMMARY VOLUMETRIC BUDGET FOR GSFLOW 
 DATE: 10 21 1990              CUMULATIVE TIME STEP:      21
 MODFLOW STRESS PERIOD      2     CURRENT TIME STEP:      21     ITERATIONS:       6

 -----------------------------------------------------------------------------------

   CUMULATIVE VOLUMES               L**3   RATES FOR THIS TIME STEP           L**3/T
   ------------------                      ------------------------

                                     IN                                         IN
                                     --                                         --
        PRECIPITATION =         188432.87          PRECIPITATION =                  
           STREAMFLOW =                               STREAMFLOW =                  
     GW BOUNDARY FLOW =                         GW BOUNDARY FLOW =                  


                                    OUT                                        OUT
                                    ---                                        ---
   EVAPOTRANSPIRATION =         928294.24     EVAPOTRANSPIRATION =          39716.60
           STREAMFLOW =         183012.64             STREAMFLOW =           9908.24
     GW BOUNDARY FLOW =            763.58       GW BOUNDARY FLOW =             36.47

   INFLOWS - OUTFLOWS =        -923637.60     INFLOWS - OUTFLOWS =         -49661.30
             --------                                   --------

 TOTAL STORAGE CHANGE =        -922098.34         STORAGE CHANGE =         -49626.26
       --------------                             --------------
         LAND SURFACE =           4395.42           LAND SURFACE =         -25675.32
            SOIL ZONE =        -504243.72              SOIL ZONE =          -7586.42
     UNSATURATED ZONE =        -759931.68       UNSATURATED ZONE =         -28325.23
       SATURATED ZONE =         337681.64         SATURATED ZONE =          11960.72

 OVERALL BUDGET ERROR =          -1539.26           BUDGET ERROR =            -35.05


  PERCENT DISCREPANCY =             -0.14    PERCENT DISCREPANCY =             -0.07



1
 SUMMARY VOLUMETRIC BUDGET FOR GSFLOW 
 DATE: 10 28 1990              CUMULATIVE TIME STEP:      28
 MODFLOW STRESS PERIOD      2     CURRENT TIME STEP:      28     ITERATIONS:       6

 -----------------------------------------------------------------------------------

   CUMULATIVE VOLUMES               L**3   RATES FOR THIS TIME STEP           L**3/T
   ------------------                      ------------------------

                                     IN                                         IN
                                     --                                         --
        PRECIPITATION =         188432.87          PRECIPITATION =                  
           STREAMFLOW =                               STREAMFLOW =                  
     GW BOUNDARY FLOW =                         GW BOUNDARY FLOW =                  


                                    OUT                                        OUT
                                    ---                                        ---
   EVAPOTRANSPIRATION =        1194087.68     EVAPOTRANSPIRATION =          27726.82
           STREAMFLOW =         249549.12             STREAMFLOW =           9678.24
     GW BOUNDARY FLOW =           1018.28       GW BOUNDARY FLOW =             36.36

   INFLOWS - OUTFLOWS =       -1256222.21     INFLOWS - OUTFLOWS =         -37441.41
             --------                                   --------

 TOTAL STORAGE CHANGE =       -1254435.43         STORAGE CHANGE =         -37409.41
       --------------                             --------------
         LAND SURFACE =                             LAND SURFACE =                  
            SOIL ZONE =        -668149.52              SOIL ZONE =         -18191.30
     UNSATURATED ZONE =        -990808.70       UNSATURATED ZONE =         -28504.20
       SATURATED ZONE =         404522.80         SATURATED ZONE =           9286.09

 OVERALL BUDGET ERROR =          -1786.79           BUDGET ERROR =            -32.00


  PERCENT DISCREPANCY =             -0.12    PERCENT DISCREPANCY =             -0.09



1
 SUMMARY VOLUMETRIC BUDGET FOR GSFLOW 
 DATE: 11 04 1990              CUMULATIVE TIME STEP:       4
 MODFLOW STRESS PERIOD      3     CURRENT TIME STEP:      35     ITERATIONS:       6

 -----------------------------------------------------------------------------------

   CUMULATIVE VOLUMES               L**3   RATES FOR THIS TIME STEP           L**3/T
   ------------------                      ------------------------

                                     IN                                         IN
                                     --                                         --
        PRECIPITATION =         703113.06          PRECIPITATION =                  
           STREAMFLOW =                               STREAMFLOW =                  
     GW BOUNDARY FLOW =                         GW BOUNDARY FLOW =                  


                                    OUT                                        OUT
                                    ---                                        ---
   EVAPOTRANSPIRATION =        1286040.34     EVAPOTRANSPIRATION =          26232.94
           STREAMFLOW =         322159.65             STREAMFLOW =          10644.14
     GW BOUNDARY FLOW =           1272.82       GW BOUNDARY FLOW =             36.34

   INFLOWS - OUTFLOWS =        -906359.74     INFLOWS - OUTFLOWS =         -36913.42
             --------                                   --------

 TOTAL STORAGE CHANGE =        -904393.12         STORAGE CHANGE =         -36890.80
       --------------                             --------------
         LAND SURFACE =          36990.26           LAND SURFACE =         -34939.93
            SOIL ZONE =        -268417.44              SOIL ZONE =           8813.28
     UNSATURATED ZONE =       -1151140.69       UNSATURATED ZONE =         -21448.67
       SATURATED ZONE =         478174.76         SATURATED ZONE =          10684.52

 OVERALL BUDGET ERROR =          -1966.62           BUDGET ERROR =            -22.62


  PERCENT DISCREPANCY =             -0.12    PERCENT DISCREPANCY =             -0.06



1
 SUMMARY VOLUMETRIC BUDGET FOR GSFLOW 
 DATE: 11 11 1990              CUMULATIVE TIME STEP:      11
 MODFLOW STRESS PERIOD      3     CURRENT TIME STEP:      42     ITERATIONS:       6

 -----------------------------------------------------------------------------------

   CUMULATIVE VOLUMES               L**3   RATES FOR THIS TIME STEP           L**3/T
   ------------------                      ------------------------

                                     IN                                         IN
                                     --                                         --
        PRECIPITATION =         703113.06          PRECIPITATION =                  
           STREAMFLOW =                               STREAMFLOW =                  
     GW BOUNDARY FLOW =                         GW BOUNDARY FLOW =                  


                                    OUT                                        OUT
                                    ---                                        ---
   EVAPOTRANSPIRATION =        1423642.43     EVAPOTRANSPIRATION =          27713.38
           STREAMFLOW =         396756.02             STREAMFLOW =          10542.88
     GW BOUNDARY FLOW =           1526.70       GW BOUNDARY FLOW =             36.19

   INFLOWS - OUTFLOWS =       -1118812.08     INFLOWS - OUTFLOWS =         -38292.45
             --------                                   --------

 TOTAL STORAGE CHANGE =       -1116696.14         STORAGE CHANGE =         -38272.77
       --------------                             --------------
         LAND SURFACE =            195.77           LAND SURFACE =           -519.43
            SOIL ZONE =        -364636.68              SOIL ZONE =         -25353.86
     UNSATURATED ZONE =       -1298879.53       UNSATURATED ZONE =         -21060.99
       SATURATED ZONE =         546624.29         SATURATED ZONE =           8661.50

 OVERALL BUDGET ERROR =          -2115.93           BUDGET ERROR =            -19.67


  PERCENT DISCREPANCY =             -0.12    PERCENT DISCREPANCY =             -0.05



1
 SUMMARY VOLUMETRIC BUDGET FOR GSFLOW 
 DATE: 11 18 1990              CUMULATIVE TIME STEP:      18
 MODFLOW STRESS PERIOD      3     CURRENT TIME STEP:      49     ITERATIONS:       5

 -----------------------------------------------------------------------------------

   CUMULATIVE VOLUMES               L**3   RATES FOR THIS TIME STEP           L**3/T
   ------------------                      ------------------------

                                     IN                                         IN
                                     --                                         --
        PRECIPITATION =         747883.35          PRECIPITATION =                  
           STREAMFLOW =                               STREAMFLOW =                  
     GW BOUNDARY FLOW =                         GW BOUNDARY FLOW =                  


                                    OUT                                        OUT
                                    ---                                        ---
   EVAPOTRANSPIRATION =        1535154.68     EVAPOTRANSPIRATION =           6031.89
           STREAMFLOW =         471386.61             STREAMFLOW =          10804.72
     GW BOUNDARY FLOW =           1779.69       GW BOUNDARY FLOW =             36.11

   INFLOWS - OUTFLOWS =       -1260437.63     INFLOWS - OUTFLOWS =         -16872.71
             --------                                   --------

 TOTAL STORAGE CHANGE =       -1258196.71         STORAGE CHANGE =         -16859.28
       --------------                             --------------
         LAND SURFACE =           5912.97           LAND SURFACE =          -3365.44
            SOIL ZONE =        -426044.18              SOIL ZONE =          -1819.60
     UNSATURATED ZONE =       -1443028.67       UNSATURATED ZONE =         -19963.98
       SATURATED ZONE =         604963.17         SATURATED ZONE =           8289.73

 OVERALL BUDGET ERROR =          -2240.92           BUDGET ERROR =            -13.42


  PERCENT DISCREPANCY =             -0.11    PERCENT DISCREPANCY =             -0.08



1
 SUMMARY VOLUMETRIC BUDGET FOR GSFLOW 
 DATE: 11 25 1990              CUMULATIVE TIME STEP:      25
 MODFLOW STRESS PERIOD      3     CURRENT TIME STEP:      56     ITERATIONS:       7

 -----------------------------------------------------------------------------------

   CUMULATIVE VOLUMES               L**3   RATES FOR THIS TIME STEP           L**3/T
   ------------------                      ------------------------

                                     IN                                         IN
                                     --                                         --
        PRECIPITATION =        1009043.38          PRECIPITATION =         186542.88
           STREAMFLOW =                               STREAMFLOW =                  
     GW BOUNDARY FLOW =                         GW BOUNDARY FLOW =                  


                                    OUT                                        OUT
                                    ---                                        ---
   EVAPOTRANSPIRATION =        1599373.14     EVAPOTRANSPIRATION =           6357.62
           STREAMFLOW =         548222.62             STREAMFLOW =          11030.42
     GW BOUNDARY FLOW =           2032.29       GW BOUNDARY FLOW =             36.06

   INFLOWS - OUTFLOWS =       -1140584.67     INFLOWS - OUTFLOWS =         169118.78
             --------                                   --------

 TOTAL STORAGE CHANGE =       -1138231.10         STORAGE CHANGE =         169133.23
       --------------                             --------------
         LAND SURFACE =          37126.34           LAND SURFACE =          20235.48
            SOIL ZONE =        -258020.31              SOIL ZONE =         160277.41
     UNSATURATED ZONE =       -1578828.10       UNSATURATED ZONE =         -19105.76
       SATURATED ZONE =         661490.98         SATURATED ZONE =           7726.09

 OVERALL BUDGET ERROR =          -2353.57           BUDGET ERROR =            -14.45


  PERCENT DISCREPANCY =             -0.11    PERCENT DISCREPANCY =             -0.01



1
 SUMMARY VOLUMETRIC BUDGET FOR GSFLOW 
 DATE: 12 02 1990              CUMULATIVE TIME STEP:       2
 MODFLOW STRESS PERIOD      4     CURRENT TIME STEP:      63     ITERATIONS:       5

 -----------------------------------------------------------------------------------

   CUMULATIVE VOLUMES               L**3   RATES FOR THIS TIME STEP           L**3/T
   ------------------                      ------------------------

                                     IN                                         IN
                                     --                                         --
        PRECIPITATION =        1449284.55          PRECIPITATION =                  
           STREAMFLOW =                               STREAMFLOW =                  
     GW BOUNDARY FLOW =                         GW BOUNDARY FLOW =                  


                                    OUT                                        OUT
                                    ---                                        ---
   EVAPOTRANSPIRATION =        1607116.92     EVAPOTRANSPIRATION =            374.58
           STREAMFLOW =         626206.75             STREAMFLOW =          11295.99
     GW BOUNDARY FLOW =           2284.38       GW BOUNDARY FLOW =             35.98

   INFLOWS - OUTFLOWS =        -786323.50     INFLOWS - OUTFLOWS =         -11706.55
             --------                                   --------

 TOTAL STORAGE CHANGE =        -783923.12         STORAGE CHANGE =         -11700.38
       --------------                             --------------
         LAND SURFACE =         437197.96           LAND SURFACE =           -451.19
            SOIL ZONE =        -224376.65              SOIL ZONE =            226.61
     UNSATURATED ZONE =       -1708859.00       UNSATURATED ZONE =         -18208.74
       SATURATED ZONE =         712114.57         SATURATED ZONE =           6732.94

 OVERALL BUDGET ERROR =          -2400.38           BUDGET ERROR =             -6.16


  PERCENT DISCREPANCY =             -0.11    PERCENT DISCREPANCY =             -0.05



1
 SUMMARY VOLUMETRIC BUDGET FOR GSFLOW 
 DATE: 12 09 1990              CUMULATIVE TIME STEP:       9
 MODFLOW STRESS PERIOD      4     CURRENT TIME STEP:      70     ITERATIONS:       5

 -----------------------------------------------------------------------------------

   CUMULATIVE VOLUMES               L**3   RATES FOR THIS TIME STEP           L**3/T
   ------------------                      ------------------------

                                     IN                                         IN
                                     --                                         --
        PRECIPITATION =        1449284.55          PRECIPITATION =                  
           STREAMFLOW =                               STREAMFLOW =                  
     GW BOUNDARY FLOW =                         GW BOUNDARY FLOW =                  


                                    OUT                                        OUT
                                    ---                                        ---
   EVAPOTRANSPIRATION =        1700697.81     EVAPOTRANSPIRATION =          20934.37
           STREAMFLOW =         705960.99             STREAMFLOW =          11434.39
     GW BOUNDARY FLOW =           2535.86       GW BOUNDARY FLOW =             35.89

   INFLOWS - OUTFLOWS =        -959910.11     INFLOWS - OUTFLOWS =         -32404.65
             --------                                   --------

 TOTAL STORAGE CHANGE =        -957464.64         STORAGE CHANGE =         -32398.32
       --------------                             --------------
         LAND SURFACE =          41512.44           LAND SURFACE =         -36212.48
            SOIL ZONE =          80633.56              SOIL ZONE =          16101.75
     UNSATURATED ZONE =       -1834557.78       UNSATURATED ZONE =         -17956.97
       SATURATED ZONE =         754947.13         SATURATED ZONE =           5669.38

 OVERALL BUDGET ERROR =          -2445.46           BUDGET ERROR =             -6.33


  PERCENT DISCREPANCY =             -0.10    PERCENT DISCREPANCY =             -0.02



1
 SUMMARY VOLUMETRIC BUDGET FOR GSFLOW 
 DATE: 12 16 1990              CUMULATIVE TIME STEP:      16
 MODFLOW STRESS PERIOD      4     CURRENT TIME STEP:      77     ITERATIONS:       5

 -----------------------------------------------------------------------------------

   CUMULATIVE VOLUMES               L**3   RATES FOR THIS TIME STEP           L**3/T
   ------------------                      ------------------------

                                     IN                                         IN
                                     --                                         --
        PRECIPITATION =        1804962.84          PRECIPITATION =                  
           STREAMFLOW =                               STREAMFLOW =                  
     GW BOUNDARY FLOW =                         GW BOUNDARY FLOW =                  


                                    OUT                                        OUT
                                    ---                                        ---
   EVAPOTRANSPIRATION =        1741485.99     EVAPOTRANSPIRATION =                  
           STREAMFLOW =         786571.13             STREAMFLOW =          11564.42
     GW BOUNDARY FLOW =           2786.70       GW BOUNDARY FLOW =             35.80

   INFLOWS - OUTFLOWS =        -725880.98     INFLOWS - OUTFLOWS =         -11600.22
             --------                                   --------

 TOTAL STORAGE CHANGE =        -723396.26         STORAGE CHANGE =         -11594.60
       --------------                             --------------
         LAND SURFACE =         187163.75           LAND SURFACE =                  
            SOIL ZONE =         252093.60              SOIL ZONE =            170.71
     UNSATURATED ZONE =       -1954900.11       UNSATURATED ZONE =         -16774.07
       SATURATED ZONE =         792246.50         SATURATED ZONE =           5008.76

 OVERALL BUDGET ERROR =          -2484.72           BUDGET ERROR =             -5.62


  PERCENT DISCREPANCY =             -0.10    PERCENT DISCREPANCY =             -0.05



1
 SUMMARY VOLUMETRIC BUDGET FOR GSFLOW 
 DATE: 12 23 1990              CUMULATIVE TIME STEP:      23
 MODFLOW STRESS PERIOD      4     CURRENT TIME STEP:      84     ITERATIONS:       5

 -----------------------------------------------------------------------------------

   CUMULATIVE VOLUMES               L**3   RATES FOR THIS TIME STEP           L**3/T
   ------------------                      ------------------------

                                     IN                                         IN
                                     --                                         --
        PRECIPITATION =        2276236.55          PRECIPITATION =                  
           STREAMFLOW =                               STREAMFLOW =                  
     GW BOUNDARY FLOW =                         GW BOUNDARY FLOW =                  


                                    OUT                                        OUT
                                    ---                                        ---
   EVAPOTRANSPIRATION =        1742864.23     EVAPOTRANSPIRATION =                  
           STREAMFLOW =         867976.47             STREAMFLOW =          11671.69
     GW BOUNDARY FLOW =           3036.94       GW BOUNDARY FLOW =             35.71

   INFLOWS - OUTFLOWS =        -337641.08     INFLOWS - OUTFLOWS =         -11707.40
             --------                                   --------

 TOTAL STORAGE CHANGE =        -335114.30         STORAGE CHANGE =         -11701.19
       --------------                             --------------
         LAND SURFACE =         657066.96           LAND SURFACE =                  
            SOIL ZONE =         253342.95              SOIL ZONE =            183.15
     UNSATURATED ZONE =       -2069907.95       UNSATURATED ZONE =         -16168.80
       SATURATED ZONE =         824383.75         SATURATED ZONE =           4284.46

 OVERALL BUDGET ERROR =          -2526.78           BUDGET ERROR =             -6.21


  PERCENT DISCREPANCY =             -0.10    PERCENT DISCREPANCY =             -0.05



1
 SUMMARY VOLUMETRIC BUDGET FOR GSFLOW 
 DATE: 12 30 1990              CUMULATIVE TIME STEP:      30
 MODFLOW STRESS PERIOD      4     CURRENT TIME STEP:      91     ITERATIONS:       5

 -----------------------------------------------------------------------------------

   CUMULATIVE VOLUMES               L**3   RATES FOR THIS TIME STEP           L**3/T
   ------------------                      ------------------------

                                     IN                                         IN
                                     --                                         --
        PRECIPITATION =        2276236.55          PRECIPITATION =                  
           STREAMFLOW =                               STREAMFLOW =                  
     GW BOUNDARY FLOW =              0.03       GW BOUNDARY FLOW =              0.02


                                    OUT                                        OUT
                                    ---                                        ---
   EVAPOTRANSPIRATION =        1743617.09     EVAPOTRANSPIRATION =                  
           STREAMFLOW =         949992.31             STREAMFLOW =          11746.14
     GW BOUNDARY FLOW =           3287.44       GW BOUNDARY FLOW =             35.78

   INFLOWS - OUTFLOWS =        -420660.26     INFLOWS - OUTFLOWS =         -11781.90
             --------                                   --------

 TOTAL STORAGE CHANGE =        -418088.60         STORAGE CHANGE =         -11775.33
       --------------                             --------------
         LAND SURFACE =         656314.47           LAND SURFACE =                  
            SOIL ZONE =         254654.30              SOIL ZONE =            191.13
     UNSATURATED ZONE =       -2180407.27       UNSATURATED ZONE =         -15546.03
       SATURATED ZONE =         851349.90         SATURATED ZONE =           3579.57

 OVERALL BUDGET ERROR =          -2571.67           BUDGET ERROR =             -6.57


  PERCENT DISCREPANCY =             -0.10    PERCENT DISCREPANCY =             -0.06



1
 SUMMARY VOLUMETRIC BUDGET FOR GSFLOW 
 DATE: 01 06 1991              CUMULATIVE TIME STEP:       6
 MODFLOW STRESS PERIOD      5     CURRENT TIME STEP:      98     ITERATIONS:       5

 -----------------------------------------------------------------------------------

   CUMULATIVE VOLUMES               L**3   RATES FOR THIS TIME STEP           L**3/T
   ------------------                      ------------------------

                                     IN                                         IN
                                     --                                         --
        PRECIPITATION =        2276236.55          PRECIPITATION =                  
           STREAMFLOW =                               STREAMFLOW =                  
     GW BOUNDARY FLOW =              0.57       GW BOUNDARY FLOW =              0.12


                                    OUT                                        OUT
                                    ---                                        ---
   EVAPOTRANSPIRATION =        1766959.80     EVAPOTRANSPIRATION =           2588.73
           STREAMFLOW =        1032509.96             STREAMFLOW =          11819.85
     GW BOUNDARY FLOW =           3537.93       GW BOUNDARY FLOW =             35.79

   INFLOWS - OUTFLOWS =        -526770.56     INFLOWS - OUTFLOWS =         -14444.25
             --------                                   --------

 TOTAL STORAGE CHANGE =        -524150.78         STORAGE CHANGE =         -14437.14
       --------------                             --------------
         LAND SURFACE =         548041.05           LAND SURFACE =          -6127.39
            SOIL ZONE =         341055.17              SOIL ZONE =           3745.24
     UNSATURATED ZONE =       -2286654.22       UNSATURATED ZONE =         -14912.67
       SATURATED ZONE =         873407.22         SATURATED ZONE =           2857.68

 OVERALL BUDGET ERROR =          -2619.78           BUDGET ERROR =             -7.11


  PERCENT DISCREPANCY =             -0.09    PERCENT DISCREPANCY =             -0.05



1
 SUMMARY VOLUMETRIC BUDGET FOR GSFLOW 
 DATE: 01 13 1991              CUMULATIVE TIME STEP:      13
 MODFLOW STRESS PERIOD      5     CURRENT TIME STEP:     105     ITERATIONS:       6

 -----------------------------------------------------------------------------------

   CUMULATIVE VOLUMES               L**3   RATES FOR THIS TIME STEP           L**3/T
   ------------------                      ------------------------

                                     IN                                         IN
                                     --                                         --
        PRECIPITATION =        2596386.94          PRECIPITATION =          10327.43
           STREAMFLOW =                               STREAMFLOW =                  
     GW BOUNDARY FLOW =              1.77       GW BOUNDARY FLOW =              0.21


                                    OUT                                        OUT
                                    ---                                        ---
   EVAPOTRANSPIRATION =        1829047.08     EVAPOTRANSPIRATION =          18256.60
           STREAMFLOW =        1115217.98             STREAMFLOW =          11692.33
     GW BOUNDARY FLOW =           3788.38       GW BOUNDARY FLOW =             35.76

   INFLOWS - OUTFLOWS =        -351664.72     INFLOWS - OUTFLOWS =         -19657.04
             --------                                   --------

 TOTAL STORAGE CHANGE =        -348996.81         STORAGE CHANGE =         -19650.58
       --------------                             --------------
         LAND SURFACE =         512042.82           LAND SURFACE =        -134113.87
            SOIL ZONE =         640308.23              SOIL ZONE =         129020.55
     UNSATURATED ZONE =       -2391074.24       UNSATURATED ZONE =         -15955.67
       SATURATED ZONE =         889726.38         SATURATED ZONE =           1398.41

 OVERALL BUDGET ERROR =          -2667.91           BUDGET ERROR =             -6.47


  PERCENT DISCREPANCY =             -0.09    PERCENT DISCREPANCY =             -0.02



1
 SUMMARY VOLUMETRIC BUDGET FOR GSFLOW 
 DATE: 01 20 1991              CUMULATIVE TIME STEP:      20
 MODFLOW STRESS PERIOD      5     CURRENT TIME STEP:     112     ITERATIONS:       5

 -----------------------------------------------------------------------------------

   CUMULATIVE VOLUMES               L**3   RATES FOR THIS TIME STEP           L**3/T
   ------------------                      ------------------------

                                     IN                                         IN
                                     --                                         --
        PRECIPITATION =        2596386.94          PRECIPITATION =                  
           STREAMFLOW =                               STREAMFLOW =                  
     GW BOUNDARY FLOW =              3.59       GW BOUNDARY FLOW =              0.30


                                    OUT                                        OUT
                                    ---                                        ---
   EVAPOTRANSPIRATION =        1899487.01     EVAPOTRANSPIRATION =           1899.31
           STREAMFLOW =        1198451.79             STREAMFLOW =          11938.76
     GW BOUNDARY FLOW =           4038.84       GW BOUNDARY FLOW =             35.78

   INFLOWS - OUTFLOWS =        -505587.12     INFLOWS - OUTFLOWS =         -13873.56
             --------                                   --------

 TOTAL STORAGE CHANGE =        -502866.11         STORAGE CHANGE =         -13865.41
       --------------                             --------------
         LAND SURFACE =         353293.54           LAND SURFACE =           -254.70
            SOIL ZONE =         733961.68              SOIL ZONE =          -1320.25
     UNSATURATED ZONE =       -2491728.61       UNSATURATED ZONE =         -13850.24
       SATURATED ZONE =         901607.28         SATURATED ZONE =           1559.78

 OVERALL BUDGET ERROR =          -2721.00           BUDGET ERROR =             -8.14


  PERCENT DISCREPANCY =             -0.09    PERCENT DISCREPANCY =             -0.06



1
 SUMMARY VOLUMETRIC BUDGET FOR GSFLOW 
 DATE: 01 27 1991              CUMULATIVE TIME STEP:      27
 MODFLOW STRESS PERIOD      5     CURRENT TIME STEP:     119     ITERATIONS:       5

 -----------------------------------------------------------------------------------

   CUMULATIVE VOLUMES               L**3   RATES FOR THIS TIME STEP           L**3/T
   ------------------                      ------------------------

                                     IN                                         IN
                                     --                                         --
        PRECIPITATION =        2596386.94          PRECIPITATION =                  
           STREAMFLOW =                               STREAMFLOW =                  
     GW BOUNDARY FLOW =              6.00       GW BOUNDARY FLOW =              0.38


                                    OUT                                        OUT
                                    ---                                        ---
   EVAPOTRANSPIRATION =        1921900.25     EVAPOTRANSPIRATION =           1246.60
           STREAMFLOW =        1282206.41             STREAMFLOW =          12000.90
     GW BOUNDARY FLOW =           4289.28       GW BOUNDARY FLOW =             35.78

   INFLOWS - OUTFLOWS =        -612003.00     INFLOWS - OUTFLOWS =         -13282.90
             --------                                   --------

 TOTAL STORAGE CHANGE =        -609222.89         STORAGE CHANGE =         -13274.31
       --------------                             --------------
         LAND SURFACE =         325482.24           LAND SURFACE =            -73.52
            SOIL ZONE =         742848.01              SOIL ZONE =           -928.32
     UNSATURATED ZONE =       -2587217.19       UNSATURATED ZONE =         -13225.15
       SATURATED ZONE =         909664.05         SATURATED ZONE =            952.69

 OVERALL BUDGET ERROR =          -2780.11           BUDGET ERROR =             -8.59


  PERCENT DISCREPANCY =             -0.09    PERCENT DISCREPANCY =             -0.06



1
 SUMMARY VOLUMETRIC BUDGET FOR GSFLOW 
 DATE: 02 03 1991              CUMULATIVE TIME STEP:       3
 MODFLOW STRESS PERIOD      6     CURRENT TIME STEP:     126     ITERATIONS:       6

 -----------------------------------------------------------------------------------

   CUMULATIVE VOLUMES               L**3   RATES FOR THIS TIME STEP           L**3/T
   ------------------                      ------------------------

                                     IN                                         IN
                                     --                                         --
        PRECIPITATION =        3228422.31          PRECIPITATION =          30459.53
           STREAMFLOW =                               STREAMFLOW =                  
     GW BOUNDARY FLOW =              9.00       GW BOUNDARY FLOW =              0.46


                                    OUT                                        OUT
                                    ---                                        ---
   EVAPOTRANSPIRATION =        2027202.11     EVAPOTRANSPIRATION =          20881.65
           STREAMFLOW =        1366189.48             STREAMFLOW =          12045.66
     GW BOUNDARY FLOW =           4539.67       GW BOUNDARY FLOW =             35.77

   INFLOWS - OUTFLOWS =        -169499.95     INFLOWS - OUTFLOWS =          -2503.08
             --------                                   --------

 TOTAL STORAGE CHANGE =        -166664.72         STORAGE CHANGE =          -2497.13
       --------------                             --------------
         LAND SURFACE =         146751.00           LAND SURFACE =         -24802.24
            SOIL ZONE =        1456413.97              SOIL ZONE =          34742.77
     UNSATURATED ZONE =       -2682558.80       UNSATURATED ZONE =         -12722.89
       SATURATED ZONE =         912729.10         SATURATED ZONE =            285.23

 OVERALL BUDGET ERROR =          -2835.22           BUDGET ERROR =             -5.95


  PERCENT DISCREPANCY =             -0.08    PERCENT DISCREPANCY =             -0.02



1
 SUMMARY VOLUMETRIC BUDGET FOR GSFLOW 
 DATE: 02 10 1991              CUMULATIVE TIME STEP:      10
 MODFLOW STRESS PERIOD      6     CURRENT TIME STEP:     133     ITERATIONS:       5

 -----------------------------------------------------------------------------------

   CUMULATIVE VOLUMES               L**3   RATES FOR THIS TIME STEP           L**3/T
   ------------------                      ------------------------

                                     IN                                         IN
                                     --                                         --
        PRECIPITATION =        3510173.01          PRECIPITATION =                  
           STREAMFLOW =                               STREAMFLOW =                  
     GW BOUNDARY FLOW =             12.54       GW BOUNDARY FLOW =              0.54


                                    OUT                                        OUT
                                    ---                                        ---
   EVAPOTRANSPIRATION =        2195318.13     EVAPOTRANSPIRATION =          26021.40
           STREAMFLOW =        1450969.18             STREAMFLOW =          12127.85
     GW BOUNDARY FLOW =           4789.84       GW BOUNDARY FLOW =             35.70

   INFLOWS - OUTFLOWS =        -140891.60     INFLOWS - OUTFLOWS =         -38184.42
             --------                                   --------

 TOTAL STORAGE CHANGE =        -137995.17         STORAGE CHANGE =         -38174.96
       --------------                             --------------
         LAND SURFACE =          63774.58           LAND SURFACE =         -10017.74
            SOIL ZONE =        1646302.27              SOIL ZONE =         -16841.15
     UNSATURATED ZONE =       -2761368.69       UNSATURATED ZONE =         -11136.35
       SATURATED ZONE =         913296.67         SATURATED ZONE =           -179.71

 OVERALL BUDGET ERROR =          -2896.42           BUDGET ERROR =             -9.46


  PERCENT DISCREPANCY =             -0.08    PERCENT DISCREPANCY =             -0.02



1
 SUMMARY VOLUMETRIC BUDGET FOR GSFLOW 
 DATE: 02 17 1991              CUMULATIVE TIME STEP:      17
 MODFLOW STRESS PERIOD      6     CURRENT TIME STEP:     140     ITERATIONS:       5

 -----------------------------------------------------------------------------------

   CUMULATIVE VOLUMES               L**3   RATES FOR THIS TIME STEP           L**3/T
   ------------------                      ------------------------

                                     IN                                         IN
                                     --                                         --
        PRECIPITATION =        3510173.01          PRECIPITATION =                  
           STREAMFLOW =                               STREAMFLOW =                  
     GW BOUNDARY FLOW =             16.59       GW BOUNDARY FLOW =              0.61


                                    OUT                                        OUT
                                    ---                                        ---
   EVAPOTRANSPIRATION =        2439571.89     EVAPOTRANSPIRATION =          23162.46
           STREAMFLOW =        1536020.91             STREAMFLOW =          12167.25
     GW BOUNDARY FLOW =           5039.40       GW BOUNDARY FLOW =             35.61

   INFLOWS - OUTFLOWS =        -470442.61     INFLOWS - OUTFLOWS =         -35364.72
             --------                                   --------

 TOTAL STORAGE CHANGE =        -467476.50         STORAGE CHANGE =         -35354.47
       --------------                             --------------
         LAND SURFACE =          10625.62           LAND SURFACE =          -1107.15
            SOIL ZONE =        1449392.83              SOIL ZONE =         -23060.68
     UNSATURATED ZONE =       -2837628.64       UNSATURATED ZONE =         -10592.37
       SATURATED ZONE =         910133.69         SATURATED ZONE =           -594.28

 OVERALL BUDGET ERROR =          -2966.11           BUDGET ERROR =            -10.24


  PERCENT DISCREPANCY =             -0.07    PERCENT DISCREPANCY =             -0.03



1
 SUMMARY VOLUMETRIC BUDGET FOR GSFLOW 
 DATE: 02 24 1991              CUMULATIVE TIME STEP:      24
 MODFLOW STRESS PERIOD      6     CURRENT TIME STEP:     147     ITERATIONS:       5

 -----------------------------------------------------------------------------------

   CUMULATIVE VOLUMES               L**3   RATES FOR THIS TIME STEP           L**3/T
   ------------------                      ------------------------

                                     IN                                         IN
                                     --                                         --
        PRECIPITATION =        3510173.01          PRECIPITATION =                  
           STREAMFLOW =                               STREAMFLOW =                  
     GW BOUNDARY FLOW =             21.12       GW BOUNDARY FLOW =              0.68


                                    OUT                                        OUT
                                    ---                                        ---
   EVAPOTRANSPIRATION =        2633243.60     EVAPOTRANSPIRATION =          18113.38
           STREAMFLOW =        1620285.75             STREAMFLOW =          11921.15
     GW BOUNDARY FLOW =           5288.29       GW BOUNDARY FLOW =             35.50

   INFLOWS - OUTFLOWS =        -748623.52     INFLOWS - OUTFLOWS =         -30069.35
             --------                                   --------

 TOTAL STORAGE CHANGE =        -745598.97         STORAGE CHANGE =         -30058.51
       --------------                             --------------
         LAND SURFACE =           3951.44           LAND SURFACE =           -125.27
            SOIL ZONE =        1263155.51              SOIL ZONE =         -17365.87
     UNSATURATED ZONE =       -2911704.37       UNSATURATED ZONE =         -10569.68
       SATURATED ZONE =         898998.45         SATURATED ZONE =          -1997.68

 OVERALL BUDGET ERROR =          -3024.55           BUDGET ERROR =            -10.84


  PERCENT DISCREPANCY =             -0.07    PERCENT DISCREPANCY =             -0.04



1
 SUMMARY VOLUMETRIC BUDGET FOR GSFLOW 
 DATE: 03 03 1991              CUMULATIVE TIME STEP:       3
 MODFLOW STRESS PERIOD      7     CURRENT TIME STEP:     154     ITERATIONS:       5

 -----------------------------------------------------------------------------------

   CUMULATIVE VOLUMES               L**3   RATES FOR THIS TIME STEP           L**3/T
   ------------------                      ------------------------

                                     IN                                         IN
                                     --                                         --
        PRECIPITATION =        6220189.63          PRECIPITATION =        1243187.24
           STREAMFLOW =                               STREAMFLOW =                  
     GW BOUNDARY FLOW =             26.11       GW BOUNDARY FLOW =              0.74


                                    OUT                                        OUT
                                    ---                                        ---
   EVAPOTRANSPIRATION =        2762173.28     EVAPOTRANSPIRATION =           8690.67
           STREAMFLOW =        1703403.93             STREAMFLOW =          12156.84
     GW BOUNDARY FLOW =           5536.41       GW BOUNDARY FLOW =             35.43

   INFLOWS - OUTFLOWS =        1749102.13     INFLOWS - OUTFLOWS =        1222305.04
             --------                                   --------

 TOTAL STORAGE CHANGE =        1752194.10         STORAGE CHANGE =        1222315.78
       --------------                             --------------
         LAND SURFACE =        2158411.84           LAND SURFACE =         700230.69
            SOIL ZONE =        1697479.56              SOIL ZONE =         534041.17
     UNSATURATED ZONE =       -2985800.04       UNSATURATED ZONE =          -9979.33
       SATURATED ZONE =         882102.74         SATURATED ZONE =          -1976.75

 OVERALL BUDGET ERROR =          -3091.97           BUDGET ERROR =            -10.74


  PERCENT DISCREPANCY =             -0.05    PERCENT DISCREPANCY =             -0.00



1
 SUMMARY VOLUMETRIC BUDGET FOR GSFLOW 
 DATE: 03 10 1991              CUMULATIVE TIME STEP:      10
 MODFLOW STRESS PERIOD      7     CURRENT TIME STEP:     161     ITERATIONS:       5

 -----------------------------------------------------------------------------------

   CUMULATIVE VOLUMES               L**3   RATES FOR THIS TIME STEP           L**3/T
   ------------------                      ------------------------

                                     IN                                         IN
                                     --                                         --
        PRECIPITATION =        8746030.42          PRECIPITATION =          32888.55
           STREAMFLOW =                               STREAMFLOW =                  
     GW BOUNDARY FLOW =             31.51       GW BOUNDARY FLOW =              0.80


                                    OUT                                        OUT
                                    ---                                        ---
   EVAPOTRANSPIRATION =        2816646.75     EVAPOTRANSPIRATION =           7503.18
           STREAMFLOW =        2626344.32             STREAMFLOW =          13544.28
     GW BOUNDARY FLOW =           5790.23       GW BOUNDARY FLOW =             35.41

   INFLOWS - OUTFLOWS =        3297280.63     INFLOWS - OUTFLOWS =          11806.48
             --------                                   --------

 TOTAL STORAGE CHANGE =        3300438.85         STORAGE CHANGE =          11817.72
       --------------                             --------------
         LAND SURFACE =        2235698.36           LAND SURFACE =          -4542.91
            SOIL ZONE =        3180799.41              SOIL ZONE =          18261.01
     UNSATURATED ZONE =       -2988658.28       UNSATURATED ZONE =           -166.30
       SATURATED ZONE =         872599.36         SATURATED ZONE =          -1734.07

 OVERALL BUDGET ERROR =          -3158.22           BUDGET ERROR =            -11.23


  PERCENT DISCREPANCY =             -0.04    PERCENT DISCREPANCY =             -0.03



1
 SUMMARY VOLUMETRIC BUDGET FOR GSFLOW 
 DATE: 03 17 1991              CUMULATIVE TIME STEP:      17
 MODFLOW STRESS PERIOD      7     CURRENT TIME STEP:     168     ITERATIONS:       5

 -----------------------------------------------------------------------------------

   CUMULATIVE VOLUMES               L**3   RATES FOR THIS TIME STEP           L**3/T
   ------------------                      ------------------------

                                     IN                                         IN
                                     --                                         --
        PRECIPITATION =        9897129.71          PRECIPITATION =         157865.04
           STREAMFLOW =                               STREAMFLOW =                  
     GW BOUNDARY FLOW =             37.35       GW BOUNDARY FLOW =              0.86


                                    OUT                                        OUT
                                    ---                                        ---
   EVAPOTRANSPIRATION =        2839960.50     EVAPOTRANSPIRATION =           6975.76
           STREAMFLOW =        2729658.71             STREAMFLOW =          16636.66
     GW BOUNDARY FLOW =           6037.85       GW BOUNDARY FLOW =             35.36

   INFLOWS - OUTFLOWS =        4321510.01     INFLOWS - OUTFLOWS =         134218.12
             --------                                   --------

 TOTAL STORAGE CHANGE =        4324738.62         STORAGE CHANGE =         134228.99
       --------------                             --------------
         LAND SURFACE =        3338153.20           LAND SURFACE =         123394.04
            SOIL ZONE =        3117484.42              SOIL ZONE =          13961.73
     UNSATURATED ZONE =       -2992378.32       UNSATURATED ZONE =          -1251.40
       SATURATED ZONE =         861479.33         SATURATED ZONE =          -1875.38

 OVERALL BUDGET ERROR =          -3228.61           BUDGET ERROR =            -10.87


  PERCENT DISCREPANCY =             -0.03    PERCENT DISCREPANCY =             -0.01



1
 SUMMARY VOLUMETRIC BUDGET FOR GSFLOW 
 DATE: 03 24 1991              CUMULATIVE TIME STEP:      24
 MODFLOW STRESS PERIOD      7     CURRENT TIME STEP:     175     ITERATIONS:       5

 -----------------------------------------------------------------------------------

   CUMULATIVE VOLUMES               L**3   RATES FOR THIS TIME STEP           L**3/T
   ------------------                      ------------------------

                                     IN                                         IN
                                     --                                         --
        PRECIPITATION =        1.1673D+07          PRECIPITATION =        1230031.83
           STREAMFLOW =                               STREAMFLOW =                  
     GW BOUNDARY FLOW =             43.62       GW BOUNDARY FLOW =              0.92


                                    OUT                                        OUT
                                    ---                                        ---
   EVAPOTRANSPIRATION =        2873379.57     EVAPOTRANSPIRATION =           3938.10
           STREAMFLOW =        2849155.72             STREAMFLOW =          17591.68
     GW BOUNDARY FLOW =           6284.89       GW BOUNDARY FLOW =             35.25

   INFLOWS - OUTFLOWS =        5944334.95     INFLOWS - OUTFLOWS =        1208467.73
             --------                                   --------

 TOTAL STORAGE CHANGE =        5947638.38         STORAGE CHANGE =        1208478.41
       --------------                             --------------
         LAND SURFACE =        5073781.79           LAND SURFACE =        1227482.51
            SOIL ZONE =        3028498.66              SOIL ZONE =         -15270.94
     UNSATURATED ZONE =       -3003269.99       UNSATURATED ZONE =          -1893.06
       SATURATED ZONE =         848627.92         SATURATED ZONE =          -1840.11

 OVERALL BUDGET ERROR =          -3303.43           BUDGET ERROR =            -10.67


  PERCENT DISCREPANCY =             -0.03    PERCENT DISCREPANCY =             -0.00



1
 SUMMARY VOLUMETRIC BUDGET FOR GSFLOW 
 DATE: 03 31 1991              CUMULATIVE TIME STEP:      31
 MODFLOW STRESS PERIOD      7     CURRENT TIME STEP:     182     ITERATIONS:       6

 -----------------------------------------------------------------------------------

   CUMULATIVE VOLUMES               L**3   RATES FOR THIS TIME STEP           L**3/T
   ------------------                      ------------------------

                                     IN                                         IN
                                     --                                         --
        PRECIPITATION =        1.2495D+07          PRECIPITATION =                  
           STREAMFLOW =                               STREAMFLOW =                  
     GW BOUNDARY FLOW =             50.30       GW BOUNDARY FLOW =              0.98


                                    OUT                                        OUT
                                    ---                                        ---
   EVAPOTRANSPIRATION =        2981259.47     EVAPOTRANSPIRATION =          44628.97
           STREAMFLOW =        2989242.59             STREAMFLOW =          26083.05
     GW BOUNDARY FLOW =           6531.44       GW BOUNDARY FLOW =             35.28

   INFLOWS - OUTFLOWS =        6518342.07     INFLOWS - OUTFLOWS =         -70746.32
             --------                                   --------

 TOTAL STORAGE CHANGE =        6521714.12         STORAGE CHANGE =         -70740.59
       --------------                             --------------
         LAND SURFACE =        5647574.86           LAND SURFACE =        -132565.95
            SOIL ZONE =        3055323.53              SOIL ZONE =          65976.42
     UNSATURATED ZONE =       -3016910.25       UNSATURATED ZONE =          -2166.89
       SATURATED ZONE =         835725.98         SATURATED ZONE =          -1984.16

 OVERALL BUDGET ERROR =          -3372.04           BUDGET ERROR =             -5.74


  PERCENT DISCREPANCY =             -0.03    PERCENT DISCREPANCY =             -0.01



1
 SUMMARY VOLUMETRIC BUDGET FOR GSFLOW 
 DATE: 04 07 1991              CUMULATIVE TIME STEP:       7
 MODFLOW STRESS PERIOD      8     CURRENT TIME STEP:     189     ITERATIONS:       6

 -----------------------------------------------------------------------------------

   CUMULATIVE VOLUMES               L**3   RATES FOR THIS TIME STEP           L**3/T
   ------------------                      ------------------------

                                     IN                                         IN
                                     --                                         --
        PRECIPITATION =        1.3018D+07          PRECIPITATION =                  
           STREAMFLOW =                               STREAMFLOW =                  
     GW BOUNDARY FLOW =             57.34       GW BOUNDARY FLOW =              1.03


                                    OUT                                        OUT
                                    ---                                        ---
   EVAPOTRANSPIRATION =        3268492.73     EVAPOTRANSPIRATION =          13551.15
           STREAMFLOW =        3336067.55             STREAMFLOW =          53441.31
     GW BOUNDARY FLOW =           6780.12       GW BOUNDARY FLOW =             35.57

   INFLOWS - OUTFLOWS =        6406453.67     INFLOWS - OUTFLOWS =         -67027.01
             --------                                   --------

 TOTAL STORAGE CHANGE =        6409860.77         STORAGE CHANGE =         -67022.29
       --------------                             --------------
         LAND SURFACE =        4116185.85           LAND SURFACE =         -56924.70
            SOIL ZONE =        4459072.64              SOIL ZONE =         -18943.45
     UNSATURATED ZONE =       -2992366.89       UNSATURATED ZONE =           9679.76
       SATURATED ZONE =         826969.17         SATURATED ZONE =           -833.90

 OVERALL BUDGET ERROR =          -3407.09           BUDGET ERROR =             -4.72


  PERCENT DISCREPANCY =             -0.03    PERCENT DISCREPANCY =             -0.01



1
 SUMMARY VOLUMETRIC BUDGET FOR GSFLOW 
 DATE: 04 14 1991              CUMULATIVE TIME STEP:      14
 MODFLOW STRESS PERIOD      8     CURRENT TIME STEP:     196     ITERATIONS:       6

 -----------------------------------------------------------------------------------

   CUMULATIVE VOLUMES               L**3   RATES FOR THIS TIME STEP           L**3/T
   ------------------                      ------------------------

                                     IN                                         IN
                                     --                                         --
        PRECIPITATION =        1.3018D+07          PRECIPITATION =                  
           STREAMFLOW =                               STREAMFLOW =                  
     GW BOUNDARY FLOW =             64.70       GW BOUNDARY FLOW =              1.07


                                    OUT                                        OUT
                                    ---                                        ---
   EVAPOTRANSPIRATION =        3438421.47     EVAPOTRANSPIRATION =          38955.66
           STREAMFLOW =        3795635.88             STREAMFLOW =          73674.09
     GW BOUNDARY FLOW =           7029.52       GW BOUNDARY FLOW =             35.66

   INFLOWS - OUTFLOWS =        5776714.56     INFLOWS - OUTFLOWS =        -112664.35
             --------                                   --------

 TOTAL STORAGE CHANGE =        5780147.06         STORAGE CHANGE =        -112660.77
       --------------                             --------------
         LAND SURFACE =        3541064.90           LAND SURFACE =        -164763.05
            SOIL ZONE =        4345197.91              SOIL ZONE =          44433.33
     UNSATURATED ZONE =       -2930524.48       UNSATURATED ZONE =           7926.74
       SATURATED ZONE =         824408.74         SATURATED ZONE =           -257.78

 OVERALL BUDGET ERROR =          -3432.50           BUDGET ERROR =             -3.58


  PERCENT DISCREPANCY =             -0.03    PERCENT DISCREPANCY =             -0.00



1
 SUMMARY VOLUMETRIC BUDGET FOR GSFLOW 
 DATE: 04 21 1991              CUMULATIVE TIME STEP:      21
 MODFLOW STRESS PERIOD      8     CURRENT TIME STEP:     203     ITERATIONS:       6

 -----------------------------------------------------------------------------------

   CUMULATIVE VOLUMES               L**3   RATES FOR THIS TIME STEP           L**3/T
   ------------------                      ------------------------

                                     IN                                         IN
                                     --                                         --
        PRECIPITATION =        1.3034D+07          PRECIPITATION =                  
           STREAMFLOW =                               STREAMFLOW =                  
     GW BOUNDARY FLOW =             72.37       GW BOUNDARY FLOW =              1.11


                                    OUT                                        OUT
                                    ---                                        ---
   EVAPOTRANSPIRATION =        3670223.31     EVAPOTRANSPIRATION =          43459.74
           STREAMFLOW =        4312028.72             STREAMFLOW =          81487.78
     GW BOUNDARY FLOW =           7278.59       GW BOUNDARY FLOW =             35.61

   INFLOWS - OUTFLOWS =        5044603.84     INFLOWS - OUTFLOWS =        -124982.02
             --------                                   --------

 TOTAL STORAGE CHANGE =        5048055.61         STORAGE CHANGE =        -124978.97
       --------------                             --------------
         LAND SURFACE =        2540683.32           LAND SURFACE =        -195293.54
            SOIL ZONE =        4557074.52              SOIL ZONE =          61003.82
     UNSATURATED ZONE =       -2873041.74       UNSATURATED ZONE =           9498.62
       SATURATED ZONE =         823339.51         SATURATED ZONE =           -187.88

 OVERALL BUDGET ERROR =          -3451.77           BUDGET ERROR =             -3.04


  PERCENT DISCREPANCY =             -0.03    PERCENT DISCREPANCY =             -0.00



1
 SUMMARY VOLUMETRIC BUDGET FOR GSFLOW 
 DATE: 04 28 1991              CUMULATIVE TIME STEP:      28
 MODFLOW STRESS PERIOD      8     CURRENT TIME STEP:     210     ITERATIONS:       6

 -----------------------------------------------------------------------------------

   CUMULATIVE VOLUMES               L**3   RATES FOR THIS TIME STEP           L**3/T
   ------------------                      ------------------------

                                     IN                                         IN
                                     --                                         --
        PRECIPITATION =        1.3303D+07          PRECIPITATION =                  
           STREAMFLOW =                               STREAMFLOW =                  
     GW BOUNDARY FLOW =             80.33       GW BOUNDARY FLOW =              1.15


                                    OUT                                        OUT
                                    ---                                        ---
   EVAPOTRANSPIRATION =        3917181.37     EVAPOTRANSPIRATION =          55283.23
           STREAMFLOW =        4907439.36             STREAMFLOW =          88779.69
     GW BOUNDARY FLOW =           7527.57       GW BOUNDARY FLOW =             35.55

   INFLOWS - OUTFLOWS =        4471362.52     INFLOWS - OUTFLOWS =        -144097.31
             --------                                   --------

 TOTAL STORAGE CHANGE =        4474830.89         STORAGE CHANGE =        -144095.11
       --------------                             --------------
         LAND SURFACE =        1797938.24           LAND SURFACE =        -152903.02
            SOIL ZONE =        4657402.30              SOIL ZONE =          -1207.43
     UNSATURATED ZONE =       -2805242.09       UNSATURATED ZONE =           9788.18
       SATURATED ZONE =         824732.45         SATURATED ZONE =            227.17

 OVERALL BUDGET ERROR =          -3468.38           BUDGET ERROR =             -2.20


  PERCENT DISCREPANCY =             -0.03    PERCENT DISCREPANCY =             -0.00



1
 SUMMARY VOLUMETRIC BUDGET FOR GSFLOW 
 DATE: 05 05 1991              CUMULATIVE TIME STEP:       5
 MODFLOW STRESS PERIOD      9     CURRENT TIME STEP:     217     ITERATIONS:      12

 -----------------------------------------------------------------------------------

   CUMULATIVE VOLUMES               L**3   RATES FOR THIS TIME STEP           L**3/T
   ------------------                      ------------------------

                                     IN                                         IN
                                     --                                         --
        PRECIPITATION =        1.3510D+07          PRECIPITATION =                  
           STREAMFLOW =                               STREAMFLOW =                  
     GW BOUNDARY FLOW =             88.58       GW BOUNDARY FLOW =              1.20


                                    OUT                                        OUT
                                    ---                                        ---
   EVAPOTRANSPIRATION =        4266250.93     EVAPOTRANSPIRATION =          84817.23
           STREAMFLOW =        5470822.22             STREAMFLOW =          78845.77
     GW BOUNDARY FLOW =           7775.19       GW BOUNDARY FLOW =             35.30

   INFLOWS - OUTFLOWS =        3764948.37     INFLOWS - OUTFLOWS =        -163697.10
             --------                                   --------

 TOTAL STORAGE CHANGE =        3768430.03         STORAGE CHANGE =        -163696.07
       --------------                             --------------
         LAND SURFACE =        1121135.55           LAND SURFACE =        -152852.60
            SOIL ZONE =        4563427.23              SOIL ZONE =         -19811.04
     UNSATURATED ZONE =       -2743954.54       UNSATURATED ZONE =           7321.67
       SATURATED ZONE =         827821.79         SATURATED ZONE =           1645.90

 OVERALL BUDGET ERROR =          -3481.67           BUDGET ERROR =             -1.03


  PERCENT DISCREPANCY =             -0.03    PERCENT DISCREPANCY =             -0.00



1
 SUMMARY VOLUMETRIC BUDGET FOR GSFLOW 
 DATE: 05 12 1991              CUMULATIVE TIME STEP:      12
 MODFLOW STRESS PERIOD      9     CURRENT TIME STEP:     224     ITERATIONS:       6

 -----------------------------------------------------------------------------------

   CUMULATIVE VOLUMES               L**3   RATES FOR THIS TIME STEP           L**3/T
   ------------------                      ------------------------

                                     IN                                         IN
                                     --                                         --
        PRECIPITATION =        1.4029D+07          PRECIPITATION =                  
           STREAMFLOW =                               STREAMFLOW =                  
     GW BOUNDARY FLOW =             97.14       GW BOUNDARY FLOW =              1.24


                                    OUT                                        OUT
                                    ---                                        ---
   EVAPOTRANSPIRATION =        4636179.89     EVAPOTRANSPIRATION =          62594.93
           STREAMFLOW =        6013428.56             STREAMFLOW =          70694.17
     GW BOUNDARY FLOW =           8021.53       GW BOUNDARY FLOW =             35.06

   INFLOWS - OUTFLOWS =        3371689.32     INFLOWS - OUTFLOWS =        -133322.93
             --------                                   --------

 TOTAL STORAGE CHANGE =        3375181.07         STORAGE CHANGE =        -133322.11
       --------------                             --------------
         LAND SURFACE =         710447.91           LAND SURFACE =         -96049.30
            SOIL ZONE =        4522231.90              SOIL ZONE =         -44872.65
     UNSATURATED ZONE =       -2689060.39       UNSATURATED ZONE =           7027.23
       SATURATED ZONE =         831561.64         SATURATED ZONE =            572.61

 OVERALL BUDGET ERROR =          -3491.74           BUDGET ERROR =             -0.82


  PERCENT DISCREPANCY =             -0.02    PERCENT DISCREPANCY =             -0.00



1
 SUMMARY VOLUMETRIC BUDGET FOR GSFLOW 
 DATE: 05 19 1991              CUMULATIVE TIME STEP:      19
 MODFLOW STRESS PERIOD      9     CURRENT TIME STEP:     231     ITERATIONS:       6

 -----------------------------------------------------------------------------------

   CUMULATIVE VOLUMES               L**3   RATES FOR THIS TIME STEP           L**3/T
   ------------------                      ------------------------

                                     IN                                         IN
                                     --                                         --
        PRECIPITATION =        1.4365D+07          PRECIPITATION =                  
           STREAMFLOW =                               STREAMFLOW =                  
     GW BOUNDARY FLOW =            105.99       GW BOUNDARY FLOW =              1.28


                                    OUT                                        OUT
                                    ---                                        ---
   EVAPOTRANSPIRATION =        5036288.73     EVAPOTRANSPIRATION =          17977.42
           STREAMFLOW =        6442879.04             STREAMFLOW =          54206.27
     GW BOUNDARY FLOW =           8265.59       GW BOUNDARY FLOW =             34.72

   INFLOWS - OUTFLOWS =        2878050.94     INFLOWS - OUTFLOWS =         -72217.12
             --------                                   --------

 TOTAL STORAGE CHANGE =        2881547.95         STORAGE CHANGE =         -72216.18
       --------------                             --------------
         LAND SURFACE =         410881.34           LAND SURFACE =         -28850.07
            SOIL ZONE =        4284772.46              SOIL ZONE =         -48168.09
     UNSATURATED ZONE =       -2649060.90       UNSATURATED ZONE =           4518.06
       SATURATED ZONE =         834955.05         SATURATED ZONE =            283.92

 OVERALL BUDGET ERROR =          -3497.00           BUDGET ERROR =             -0.94


  PERCENT DISCREPANCY =             -0.02    PERCENT DISCREPANCY =             -0.00



1
 SUMMARY VOLUMETRIC BUDGET FOR GSFLOW 
 DATE: 05 26 1991              CUMULATIVE TIME STEP:      26
 MODFLOW STRESS PERIOD      9     CURRENT TIME STEP:     238     ITERATIONS:       6

 -----------------------------------------------------------------------------------

   CUMULATIVE VOLUMES               L**3   RATES FOR THIS TIME STEP           L**3/T
   ------------------                      ------------------------

                                     IN                                         IN
                                     --                                         --
        PRECIPITATION =        1.4426D+07          PRECIPITATION =                  
           STREAMFLOW =                               STREAMFLOW =                  
     GW BOUNDARY FLOW =            115.14       GW BOUNDARY FLOW =              1.33


                                    OUT                                        OUT
                                    ---                                        ---
   EVAPOTRANSPIRATION =        5683644.11     EVAPOTRANSPIRATION =          71093.69
           STREAMFLOW =        6752833.08             STREAMFLOW =          32235.96
     GW BOUNDARY FLOW =           8507.11       GW BOUNDARY FLOW =             34.27

   INFLOWS - OUTFLOWS =        1981628.45     INFLOWS - OUTFLOWS =        -103362.60
             --------                                   --------

 TOTAL STORAGE CHANGE =        1985133.37         STORAGE CHANGE =        -103361.01
       --------------                             --------------
         LAND SURFACE =         137693.50           LAND SURFACE =         -13707.53
            SOIL ZONE =        3642385.80              SOIL ZONE =         -89476.73
     UNSATURATED ZONE =       -2630952.06       UNSATURATED ZONE =            -75.69
       SATURATED ZONE =         836006.14         SATURATED ZONE =           -101.05

 OVERALL BUDGET ERROR =          -3504.93           BUDGET ERROR =             -1.59


  PERCENT DISCREPANCY =             -0.02    PERCENT DISCREPANCY =             -0.00



1
 SUMMARY VOLUMETRIC BUDGET FOR GSFLOW 
 DATE: 06 02 1991              CUMULATIVE TIME STEP:       2
 MODFLOW STRESS PERIOD     10     CURRENT TIME STEP:     245     ITERATIONS:       6

 -----------------------------------------------------------------------------------

   CUMULATIVE VOLUMES               L**3   RATES FOR THIS TIME STEP           L**3/T
   ------------------                      ------------------------

                                     IN                                         IN
                                     --                                         --
        PRECIPITATION =        1.4671D+07          PRECIPITATION =                  
           STREAMFLOW =                               STREAMFLOW =                  
     GW BOUNDARY FLOW =            124.60       GW BOUNDARY FLOW =              1.37


                                    OUT                                        OUT
                                    ---                                        ---
   EVAPOTRANSPIRATION =        6228590.78     EVAPOTRANSPIRATION =         119396.93
           STREAMFLOW =        6974700.56             STREAMFLOW =          27255.15
     GW BOUNDARY FLOW =           8746.35       GW BOUNDARY FLOW =             34.04

   INFLOWS - OUTFLOWS =        1459061.71     INFLOWS - OUTFLOWS =        -146684.74
             --------                                   --------

 TOTAL STORAGE CHANGE =        1462584.75         STORAGE CHANGE =        -146681.96
       --------------                             --------------
         LAND SURFACE =          65228.73           LAND SURFACE =         -11414.61
            SOIL ZONE =        3206912.00              SOIL ZONE =        -132031.09
     UNSATURATED ZONE =       -2642917.13       UNSATURATED ZONE =          -2671.45
       SATURATED ZONE =         833361.15         SATURATED ZONE =           -564.81

 OVERALL BUDGET ERROR =          -3523.04           BUDGET ERROR =             -2.79


  PERCENT DISCREPANCY =             -0.02    PERCENT DISCREPANCY =             -0.00



1
 SUMMARY VOLUMETRIC BUDGET FOR GSFLOW 
 DATE: 06 09 1991              CUMULATIVE TIME STEP:       9
 MODFLOW STRESS PERIOD     10     CURRENT TIME STEP:     252     ITERATIONS:       6

 -----------------------------------------------------------------------------------

   CUMULATIVE VOLUMES               L**3   RATES FOR THIS TIME STEP           L**3/T
   ------------------                      ------------------------

                                     IN                                         IN
                                     --                                         --
        PRECIPITATION =        1.4671D+07          PRECIPITATION =                  
           STREAMFLOW =                               STREAMFLOW =                  
     GW BOUNDARY FLOW =            134.37       GW BOUNDARY FLOW =              1.41


                                    OUT                                        OUT
                                    ---                                        ---
   EVAPOTRANSPIRATION =        6945000.49     EVAPOTRANSPIRATION =         166531.68
           STREAMFLOW =        7135241.98             STREAMFLOW =          19496.56
     GW BOUNDARY FLOW =           8983.43       GW BOUNDARY FLOW =             33.74

   INFLOWS - OUTFLOWS =         581883.26     INFLOWS - OUTFLOWS =        -186060.57
             --------                                   --------

 TOTAL STORAGE CHANGE =         585438.27         STORAGE CHANGE =        -186054.91
       --------------                             --------------
         LAND SURFACE =          17498.47           LAND SURFACE =          -7585.85
            SOIL ZONE =        2418006.49              SOIL ZONE =        -171020.67
     UNSATURATED ZONE =       -2675499.80       UNSATURATED ZONE =          -5836.32
       SATURATED ZONE =         825433.11         SATURATED ZONE =          -1612.07

 OVERALL BUDGET ERROR =          -3555.00           BUDGET ERROR =             -5.66


  PERCENT DISCREPANCY =             -0.02    PERCENT DISCREPANCY =             -0.00



1
 SUMMARY VOLUMETRIC BUDGET FOR GSFLOW 
 DATE: 06 16 1991              CUMULATIVE TIME STEP:      16
 MODFLOW STRESS PERIOD     10     CURRENT TIME STEP:     259     ITERATIONS:       7

 -----------------------------------------------------------------------------------

   CUMULATIVE VOLUMES               L**3   RATES FOR THIS TIME STEP           L**3/T
   ------------------                      ------------------------

                                     IN                                         IN
                                     --                                         --
        PRECIPITATION =        1.4671D+07          PRECIPITATION =                  
           STREAMFLOW =                               STREAMFLOW =                  
     GW BOUNDARY FLOW =            144.44       GW BOUNDARY FLOW =              1.46


                                    OUT                                        OUT
                                    ---                                        ---
   EVAPOTRANSPIRATION =        7902504.89     EVAPOTRANSPIRATION =         107699.84
           STREAMFLOW =        7256748.05             STREAMFLOW =          16760.05
     GW BOUNDARY FLOW =           9218.67       GW BOUNDARY FLOW =             33.53

   INFLOWS - OUTFLOWS =        -497352.37     INFLOWS - OUTFLOWS =        -124491.96
             --------                                   --------

 TOTAL STORAGE CHANGE =        -493753.63         STORAGE CHANGE =        -124486.78
       --------------                             --------------
         LAND SURFACE =            705.51           LAND SURFACE =           -399.79
            SOIL ZONE =        1448527.53              SOIL ZONE =        -106689.73
     UNSATURATED ZONE =       -2751686.45       UNSATURATED ZONE =         -14337.85
       SATURATED ZONE =         808699.78         SATURATED ZONE =          -3059.41

 OVERALL BUDGET ERROR =          -3598.75           BUDGET ERROR =             -5.18


  PERCENT DISCREPANCY =             -0.02    PERCENT DISCREPANCY =             -0.00



1
 SUMMARY VOLUMETRIC BUDGET FOR GSFLOW 
 DATE: 06 23 1991              CUMULATIVE TIME STEP:      23
 MODFLOW STRESS PERIOD     10     CURRENT TIME STEP:     266     ITERATIONS:       7

 -----------------------------------------------------------------------------------

   CUMULATIVE VOLUMES               L**3   RATES FOR THIS TIME STEP           L**3/T
   ------------------                      ------------------------

                                     IN                                         IN
                                     --                                         --
        PRECIPITATION =        1.4671D+07          PRECIPITATION =                  
           STREAMFLOW =                               STREAMFLOW =                  
     GW BOUNDARY FLOW =            154.74       GW BOUNDARY FLOW =              1.46


                                    OUT                                        OUT
                                    ---                                        ---
   EVAPOTRANSPIRATION =        8374264.53     EVAPOTRANSPIRATION =          33677.97
           STREAMFLOW =        7370607.52             STREAMFLOW =          16001.84
     GW BOUNDARY FLOW =           9452.71       GW BOUNDARY FLOW =             33.37

   INFLOWS - OUTFLOWS =       -1083195.23     INFLOWS - OUTFLOWS =         -49711.73
             --------                                   --------

 TOTAL STORAGE CHANGE =       -1079555.92         STORAGE CHANGE =         -49706.59
       --------------                             --------------
         LAND SURFACE =             27.33           LAND SURFACE =             -3.89
            SOIL ZONE =         989123.94              SOIL ZONE =         -33688.75
     UNSATURATED ZONE =       -2849470.01       UNSATURATED ZONE =         -11743.18
       SATURATED ZONE =         780762.82         SATURATED ZONE =          -4270.77

 OVERALL BUDGET ERROR =          -3639.32           BUDGET ERROR =             -5.13


  PERCENT DISCREPANCY =             -0.02    PERCENT DISCREPANCY =             -0.01



1
 SUMMARY VOLUMETRIC BUDGET FOR GSFLOW 
 DATE: 06 30 1991              CUMULATIVE TIME STEP:      30
 MODFLOW STRESS PERIOD     10     CURRENT TIME STEP:     273     ITERATIONS:       6

 -----------------------------------------------------------------------------------

   CUMULATIVE VOLUMES               L**3   RATES FOR THIS TIME STEP           L**3/T
   ------------------                      ------------------------

                                     IN                                         IN
[...]
                                    ---                                        ---
   EVAPOTRANSPIRATION =        1.4256D+08     EVAPOTRANSPIRATION =          15262.72
           STREAMFLOW =        1.2396D+08             STREAMFLOW =           2895.28
     GW BOUNDARY FLOW =          95500.05       GW BOUNDARY FLOW =             21.76

   INFLOWS - OUTFLOWS =       -2.6606D+07     INFLOWS - OUTFLOWS =         -18173.58
             --------                                   --------

 TOTAL STORAGE CHANGE =       -2.5725D+07         STORAGE CHANGE =         -18172.79
       --------------                             --------------
         LAND SURFACE =                             LAND SURFACE =                  
            SOIL ZONE =       -1981167.02              SOIL ZONE =          -4171.05
     UNSATURATED ZONE =         404170.95       UNSATURATED ZONE =          -1793.03
       SATURATED ZONE =       -2.4148D+07         SATURATED ZONE =         -12208.71

 OVERALL BUDGET ERROR =        -880326.21           BUDGET ERROR =             -0.79


  PERCENT DISCREPANCY =             -0.33    PERCENT DISCREPANCY =             -0.00



1
 SUMMARY VOLUMETRIC BUDGET FOR GSFLOW 
 DATE: 09 03 2000              CUMULATIVE TIME STEP:       3
 MODFLOW STRESS PERIOD    121     CURRENT TIME STEP:    3626     ITERATIONS:       7

 -----------------------------------------------------------------------------------

   CUMULATIVE VOLUMES               L**3   RATES FOR THIS TIME STEP           L**3/T
   ------------------                      ------------------------

                                     IN                                         IN
                                     --                                         --
        PRECIPITATION =        2.4013D+08          PRECIPITATION =                  
           STREAMFLOW =                               STREAMFLOW =                  
     GW BOUNDARY FLOW =          14959.72       GW BOUNDARY FLOW =              6.19


                                    OUT                                        OUT
                                    ---                                        ---
   EVAPOTRANSPIRATION =        1.4264D+08     EVAPOTRANSPIRATION =          28557.89
           STREAMFLOW =        1.2399D+08             STREAMFLOW =           6457.96
     GW BOUNDARY FLOW =          95653.72       GW BOUNDARY FLOW =             22.19

   INFLOWS - OUTFLOWS =       -2.6589D+07     INFLOWS - OUTFLOWS =         -35031.85
             --------                                   --------

 TOTAL STORAGE CHANGE =       -2.5709D+07         STORAGE CHANGE =         -35032.40
       --------------                             --------------
         LAND SURFACE =           8198.00           LAND SURFACE =         -28500.39
            SOIL ZONE =       -1899729.38              SOIL ZONE =             -4.43
     UNSATURATED ZONE =         392514.76       UNSATURATED ZONE =          -1512.41
       SATURATED ZONE =       -2.4210D+07         SATURATED ZONE =          -5015.17

 OVERALL BUDGET ERROR =        -880325.39           BUDGET ERROR =              0.55


  PERCENT DISCREPANCY =             -0.33    PERCENT DISCREPANCY =              0.00



1
 SUMMARY VOLUMETRIC BUDGET FOR GSFLOW 
 DATE: 09 10 2000              CUMULATIVE TIME STEP:      10
 MODFLOW STRESS PERIOD    121     CURRENT TIME STEP:    3633     ITERATIONS:      12

 -----------------------------------------------------------------------------------

   CUMULATIVE VOLUMES               L**3   RATES FOR THIS TIME STEP           L**3/T
   ------------------                      ------------------------

                                     IN                                         IN
                                     --                                         --
        PRECIPITATION =        2.4013D+08          PRECIPITATION =                  
           STREAMFLOW =                               STREAMFLOW =                  
     GW BOUNDARY FLOW =          15003.05       GW BOUNDARY FLOW =              6.19


                                    OUT                                        OUT
                                    ---                                        ---
   EVAPOTRANSPIRATION =        1.4273D+08     EVAPOTRANSPIRATION =          10661.44
           STREAMFLOW =        1.2403D+08             STREAMFLOW =           4433.53
     GW BOUNDARY FLOW =          95807.74       GW BOUNDARY FLOW =             21.97

   INFLOWS - OUTFLOWS =       -2.6706D+07     INFLOWS - OUTFLOWS =         -15110.75
             --------                                   --------

 TOTAL STORAGE CHANGE =       -2.5825D+07         STORAGE CHANGE =         -15109.99
       --------------                             --------------
         LAND SURFACE =                             LAND SURFACE =                  
            SOIL ZONE =       -1934721.89              SOIL ZONE =          -4407.46
     UNSATURATED ZONE =         380582.05       UNSATURATED ZONE =          -1680.19
       SATURATED ZONE =       -2.4271D+07         SATURATED ZONE =          -9022.34

 OVERALL BUDGET ERROR =        -880328.69           BUDGET ERROR =             -0.75


  PERCENT DISCREPANCY =             -0.33    PERCENT DISCREPANCY =             -0.00



1
 SUMMARY VOLUMETRIC BUDGET FOR GSFLOW 
 DATE: 09 17 2000              CUMULATIVE TIME STEP:      17
 MODFLOW STRESS PERIOD    121     CURRENT TIME STEP:    3640     ITERATIONS:     381

 -----------------------------------------------------------------------------------

   CUMULATIVE VOLUMES               L**3   RATES FOR THIS TIME STEP           L**3/T
   ------------------                      ------------------------

                                     IN                                         IN
                                     --                                         --
        PRECIPITATION =        2.4013D+08          PRECIPITATION =                  
           STREAMFLOW =                               STREAMFLOW =                  
     GW BOUNDARY FLOW =          15046.44       GW BOUNDARY FLOW =              6.20


                                    OUT                                        OUT
                                    ---                                        ---
   EVAPOTRANSPIRATION =        1.4281D+08     EVAPOTRANSPIRATION =          10585.44
           STREAMFLOW =        1.2406D+08             STREAMFLOW =           4128.63
     GW BOUNDARY FLOW =          95961.15       GW BOUNDARY FLOW =             21.93

   INFLOWS - OUTFLOWS =       -2.6818D+07     INFLOWS - OUTFLOWS =         -14729.81
             --------                                   --------

 TOTAL STORAGE CHANGE =       -2.5937D+07         STORAGE CHANGE =         -14730.23
       --------------                             --------------
         LAND SURFACE =                             LAND SURFACE =                  
            SOIL ZONE =       -1962891.93              SOIL ZONE =          -2959.86
     UNSATURATED ZONE =         366516.88       UNSATURATED ZONE =          -4094.85
       SATURATED ZONE =       -2.4341D+07         SATURATED ZONE =          -7675.52

 OVERALL BUDGET ERROR =        -880327.73           BUDGET ERROR =              0.43


  PERCENT DISCREPANCY =             -0.33    PERCENT DISCREPANCY =              0.00



1
 SUMMARY VOLUMETRIC BUDGET FOR GSFLOW 
 DATE: 09 24 2000              CUMULATIVE TIME STEP:      24
 MODFLOW STRESS PERIOD    121     CURRENT TIME STEP:    3647     ITERATIONS:      11

 -----------------------------------------------------------------------------------

   CUMULATIVE VOLUMES               L**3   RATES FOR THIS TIME STEP           L**3/T
   ------------------                      ------------------------

                                     IN                                         IN
                                     --                                         --
        PRECIPITATION =        2.4013D+08          PRECIPITATION =                  
           STREAMFLOW =                               STREAMFLOW =                  
     GW BOUNDARY FLOW =          15089.87       GW BOUNDARY FLOW =              6.21


                                    OUT                                        OUT
                                    ---                                        ---
   EVAPOTRANSPIRATION =        1.4286D+08     EVAPOTRANSPIRATION =           5164.66
           STREAMFLOW =        1.2409D+08             STREAMFLOW =           5196.81
     GW BOUNDARY FLOW =          96114.95       GW BOUNDARY FLOW =             22.06

   INFLOWS - OUTFLOWS =       -2.6905D+07     INFLOWS - OUTFLOWS =         -10377.32
             --------                                   --------

 TOTAL STORAGE CHANGE =       -2.6025D+07         STORAGE CHANGE =         -10377.50
       --------------                             --------------
         LAND SURFACE =                             LAND SURFACE =                  
            SOIL ZONE =       -1976053.78              SOIL ZONE =          -1053.90
     UNSATURATED ZONE =         354531.69       UNSATURATED ZONE =          -1577.58
       SATURATED ZONE =       -2.4403D+07         SATURATED ZONE =          -7746.03

 OVERALL BUDGET ERROR =        -880325.35           BUDGET ERROR =              0.19


  PERCENT DISCREPANCY =             -0.33    PERCENT DISCREPANCY =              0.00



1
 SUMMARY VOLUMETRIC BUDGET FOR GSFLOW 
 DATE: 10 01 2000              CUMULATIVE TIME STEP:       1
 MODFLOW STRESS PERIOD    122     CURRENT TIME STEP:    3654     ITERATIONS:      20

 -----------------------------------------------------------------------------------

   CUMULATIVE VOLUMES               L**3   RATES FOR THIS TIME STEP           L**3/T
   ------------------                      ------------------------

                                     IN                                         IN
                                     --                                         --
        PRECIPITATION =        2.4013D+08          PRECIPITATION =                  
           STREAMFLOW =                               STREAMFLOW =                  
     GW BOUNDARY FLOW =          15133.35       GW BOUNDARY FLOW =              6.21


                                    OUT                                        OUT
                                    ---                                        ---
   EVAPOTRANSPIRATION =        1.4292D+08     EVAPOTRANSPIRATION =           8325.70
           STREAMFLOW =        1.2412D+08             STREAMFLOW =           4416.12
     GW BOUNDARY FLOW =          96268.66       GW BOUNDARY FLOW =             21.96

   INFLOWS - OUTFLOWS =       -2.6996D+07     INFLOWS - OUTFLOWS =         -12757.56
             --------                                   --------

 TOTAL STORAGE CHANGE =       -2.6116D+07         STORAGE CHANGE =         -12757.77
       --------------                             --------------
         LAND SURFACE =                             LAND SURFACE =                  
            SOIL ZONE =       -1987828.07              SOIL ZONE =          -1543.37
     UNSATURATED ZONE =         342809.54       UNSATURATED ZONE =          -1629.05
       SATURATED ZONE =       -2.4471D+07         SATURATED ZONE =          -9585.35

 OVERALL BUDGET ERROR =        -880323.77           BUDGET ERROR =              0.21


  PERCENT DISCREPANCY =             -0.33    PERCENT DISCREPANCY =              0.00



1
 SUMMARY VOLUMETRIC BUDGET FOR GSFLOW 
 DATE: 10 08 2000              CUMULATIVE TIME STEP:       8
 MODFLOW STRESS PERIOD    122     CURRENT TIME STEP:    3661     ITERATIONS:      19

 -----------------------------------------------------------------------------------

   CUMULATIVE VOLUMES               L**3   RATES FOR THIS TIME STEP           L**3/T
   ------------------                      ------------------------

                                     IN                                         IN
                                     --                                         --
        PRECIPITATION =        2.4013D+08          PRECIPITATION =                  
           STREAMFLOW =                               STREAMFLOW =                  
     GW BOUNDARY FLOW =          15176.87       GW BOUNDARY FLOW =              6.22


                                    OUT                                        OUT
                                    ---                                        ---
   EVAPOTRANSPIRATION =        1.4298D+08     EVAPOTRANSPIRATION =           6986.72
           STREAMFLOW =        1.2415D+08             STREAMFLOW =           4822.84
     GW BOUNDARY FLOW =          96422.58       GW BOUNDARY FLOW =             22.00

   INFLOWS - OUTFLOWS =       -2.7080D+07     INFLOWS - OUTFLOWS =         -11825.34
             --------                                   --------

 TOTAL STORAGE CHANGE =       -2.6200D+07         STORAGE CHANGE =         -11825.49
       --------------                             --------------
         LAND SURFACE =                             LAND SURFACE =                  
            SOIL ZONE =       -1996595.72              SOIL ZONE =          -1150.30
     UNSATURATED ZONE =         331594.60       UNSATURATED ZONE =          -1615.56
       SATURATED ZONE =       -2.4535D+07         SATURATED ZONE =          -9059.63

 OVERALL BUDGET ERROR =        -880322.60           BUDGET ERROR =              0.16


  PERCENT DISCREPANCY =             -0.33    PERCENT DISCREPANCY =              0.00



1
 SUMMARY VOLUMETRIC BUDGET FOR GSFLOW 
 DATE: 10 15 2000              CUMULATIVE TIME STEP:      15
 MODFLOW STRESS PERIOD    122     CURRENT TIME STEP:    3668     ITERATIONS:      18

 -----------------------------------------------------------------------------------

   CUMULATIVE VOLUMES               L**3   RATES FOR THIS TIME STEP           L**3/T
   ------------------                      ------------------------

                                     IN                                         IN
                                     --                                         --
        PRECIPITATION =        2.4034D+08          PRECIPITATION =                  
           STREAMFLOW =                               STREAMFLOW =                  
     GW BOUNDARY FLOW =          15220.42       GW BOUNDARY FLOW =              6.22


                                    OUT                                        OUT
                                    ---                                        ---
   EVAPOTRANSPIRATION =        1.4303D+08     EVAPOTRANSPIRATION =           7476.08
           STREAMFLOW =        1.2420D+08             STREAMFLOW =           6190.97
     GW BOUNDARY FLOW =          96577.97       GW BOUNDARY FLOW =             22.16

   INFLOWS - OUTFLOWS =       -2.6971D+07     INFLOWS - OUTFLOWS =         -13682.98
             --------                                   --------

 TOTAL STORAGE CHANGE =       -2.6090D+07         STORAGE CHANGE =         -13683.02
       --------------                             --------------
         LAND SURFACE =             11.88           LAND SURFACE =            -60.12
            SOIL ZONE =       -1832553.58              SOIL ZONE =          -4829.12
     UNSATURATED ZONE =         320413.96       UNSATURATED ZONE =          -1656.15
       SATURATED ZONE =       -2.4578D+07         SATURATED ZONE =          -7137.63

 OVERALL BUDGET ERROR =        -880322.78           BUDGET ERROR =              0.04


  PERCENT DISCREPANCY =             -0.33    PERCENT DISCREPANCY =              0.00



1
 SUMMARY VOLUMETRIC BUDGET FOR GSFLOW 
 DATE: 10 22 2000              CUMULATIVE TIME STEP:      22
 MODFLOW STRESS PERIOD    122     CURRENT TIME STEP:    3675     ITERATIONS:      17

 -----------------------------------------------------------------------------------

   CUMULATIVE VOLUMES               L**3   RATES FOR THIS TIME STEP           L**3/T
   ------------------                      ------------------------

                                     IN                                         IN
                                     --                                         --
        PRECIPITATION =        2.4039D+08          PRECIPITATION =                  
           STREAMFLOW =                               STREAMFLOW =                  
     GW BOUNDARY FLOW =          15264.01       GW BOUNDARY FLOW =              6.23


                                    OUT                                        OUT
                                    ---                                        ---
   EVAPOTRANSPIRATION =        1.4309D+08     EVAPOTRANSPIRATION =           8693.70
           STREAMFLOW =        1.2424D+08             STREAMFLOW =           7167.62
     GW BOUNDARY FLOW =          96733.28       GW BOUNDARY FLOW =             22.29

   INFLOWS - OUTFLOWS =       -2.7027D+07     INFLOWS - OUTFLOWS =         -15877.39
             --------                                   --------

 TOTAL STORAGE CHANGE =       -2.6147D+07         STORAGE CHANGE =         -15877.33
       --------------                             --------------
         LAND SURFACE =          14940.20           LAND SURFACE =          -8673.07
            SOIL ZONE =       -1844187.14              SOIL ZONE =             30.31
     UNSATURATED ZONE =         309302.73       UNSATURATED ZONE =          -1477.32
       SATURATED ZONE =       -2.4627D+07         SATURATED ZONE =          -5757.25

 OVERALL BUDGET ERROR =        -880322.72           BUDGET ERROR =             -0.05


  PERCENT DISCREPANCY =             -0.33    PERCENT DISCREPANCY =             -0.00



1
 SUMMARY VOLUMETRIC BUDGET FOR GSFLOW 
 DATE: 10 29 2000              CUMULATIVE TIME STEP:      29
 MODFLOW STRESS PERIOD    122     CURRENT TIME STEP:    3682     ITERATIONS:      16

 -----------------------------------------------------------------------------------

   CUMULATIVE VOLUMES               L**3   RATES FOR THIS TIME STEP           L**3/T
   ------------------                      ------------------------

                                     IN                                         IN
                                     --                                         --
        PRECIPITATION =        2.4111D+08          PRECIPITATION =          24578.20
           STREAMFLOW =                               STREAMFLOW =                  
     GW BOUNDARY FLOW =          15307.63       GW BOUNDARY FLOW =              6.23


                                    OUT                                        OUT
                                    ---                                        ---
   EVAPOTRANSPIRATION =        1.4313D+08     EVAPOTRANSPIRATION =           4118.64
           STREAMFLOW =        1.2429D+08             STREAMFLOW =           7162.98
     GW BOUNDARY FLOW =          96889.24       GW BOUNDARY FLOW =             22.32

   INFLOWS - OUTFLOWS =       -2.6394D+07     INFLOWS - OUTFLOWS =          13280.50
             --------                                   --------

 TOTAL STORAGE CHANGE =       -2.5514D+07         STORAGE CHANGE =          13280.56
       --------------                             --------------
         LAND SURFACE =         498945.50           LAND SURFACE =          15332.79
            SOIL ZONE =       -1640853.10              SOIL ZONE =           5406.76
     UNSATURATED ZONE =         298271.69       UNSATURATED ZONE =          -1591.34
       SATURATED ZONE =       -2.4670D+07         SATURATED ZONE =          -5867.65

 OVERALL BUDGET ERROR =        -880323.04           BUDGET ERROR =             -0.06


  PERCENT DISCREPANCY =             -0.33    PERCENT DISCREPANCY =             -0.00



